<?xml version="1.0" encoding="UTF-8"?>

<!-- generated on 2023-07-11 10:53:50.497459 by osmWebWizard.py v1_15_0+0002-e6790248698
<configuration>
    <end value="6000"/>
    <fringe-factor value="5"/>
    <fringe-start-attributes value="departSpeed=&quot;max&quot;"/>
    <insertion-density value="4.0"/>
    <min-distance.fringe value="10.0"/>
    <min-distance value="600.0"/>
    <net-file value="C:\Users\User\Documents\Sumo\tools\2023-07-11-10-53-40\osm.net.xml.gz"/>
    <remove-loops value="True"/>
    <route-file value="C:\Users\User\Documents\Sumo\tools\2023-07-11-10-53-40\osm.bus.rou.xml"/>
    <trip-attributes value="departLane=&quot;best&quot;"/>
    <output-trip-file value="C:\Users\User\Documents\Sumo\tools\2023-07-11-10-53-40\osm.bus.trips.xml"/>
    <prefix value="bus"/>
    <validate value="True"/>
    <vclass value="bus"/>
    <vehicle-class value="bus"/>
</configuration>
-->

<!-- generated on 2023-07-11 10:53:50 by Eclipse SUMO duarouter Version 1.15.0
<configuration xmlns:xsi="http://www.w3.org/2001/XMLSchema-instance" xsi:noNamespaceSchemaLocation="http://sumo.dlr.de/xsd/duarouterConfiguration.xsd">

    <input>
        <net-file value="C:\Users\User\Documents\Sumo\tools\2023-07-11-10-53-40\osm.net.xml.gz"/>
        <route-files value="C:\Users\User\Documents\Sumo\tools\2023-07-11-10-53-40\osm.bus.trips.xml"/>
    </input>

    <output>
        <output-file value="C:\Users\User\Documents\Sumo\tools\2023-07-11-10-53-40\osm.bus.trips.xml.tmp"/>
        <alternatives-output value="NUL"/>
        <write-trips value="true"/>
    </output>

    <processing>
        <remove-loops value="true"/>
    </processing>

    <time>
        <begin value="0"/>
        <end value="6000"/>
    </time>

    <report>
        <no-warnings value="true"/>
        <ignore-errors value="true"/>
        <no-step-log value="true"/>
    </report>

</configuration>
-->

<routes xmlns:xsi="http://www.w3.org/2001/XMLSchema-instance" xsi:noNamespaceSchemaLocation="http://sumo.dlr.de/xsd/routes_file.xsd">
    <vType id="bus_bus" vClass="bus"/>
    <trip id="bus0" type="bus_bus" depart="0.00" departLane="best" from="303644452#2" to="-175960788#3"/>
    <trip id="bus1" type="bus_bus" depart="3.58" departLane="best" departSpeed="max" from="-50728064" to="-50728064"/>
    <trip id="bus2" type="bus_bus" depart="7.15" departLane="best" from="33055472#0" to="485053285#0"/>
    <trip id="bus3" type="bus_bus" depart="10.73" departLane="best" from="-72107992#2" to="-415418914#3"/>
    <trip id="bus4" type="bus_bus" depart="14.30" departLane="best" from="-85470044#2" to="-197773382#8"/>
    <trip id="bus5" type="bus_bus" depart="17.88" departLane="best" from="48135949#0" to="27571057#0"/>
    <trip id="bus6" type="bus_bus" depart="21.45" departLane="best" departSpeed="max" from="-55353714#4" to="-55353714#4"/>
    <trip id="bus7" type="bus_bus" depart="25.03" departLane="best" from="310175396" to="34922486#0"/>
    <trip id="bus8" type="bus_bus" depart="28.60" departLane="best" departSpeed="max" from="-48161586#3" to="45780621#0"/>
    <trip id="bus9" type="bus_bus" depart="32.18" departLane="best" from="485053284" to="117618466"/>
    <trip id="bus10" type="bus_bus" depart="35.75" departLane="best" from="51479706" to="49743607#0"/>
    <trip id="bus11" type="bus_bus" depart="39.33" departLane="best" departSpeed="max" from="-51984177" to="-51270413#7"/>
    <trip id="bus12" type="bus_bus" depart="42.90" departLane="best" from="-86849761#1" to="127703117#0"/>
    <trip id="bus13" type="bus_bus" depart="46.48" departLane="best" from="29231523#0" to="-415418927"/>
    <trip id="bus14" type="bus_bus" depart="50.05" departLane="best" from="521699319" to="45781497#0"/>
    <trip id="bus15" type="bus_bus" depart="53.63" departLane="best" from="51479706" to="51189679"/>
    <trip id="bus16" type="bus_bus" depart="57.20" departLane="best" from="146588153#0" to="92409495#5"/>
    <trip id="bus17" type="bus_bus" depart="60.78" departLane="best" departSpeed="max" from="415418914#0" to="415418914#0"/>
    <trip id="bus18" type="bus_bus" depart="64.35" departLane="best" departSpeed="max" from="51548270#0" to="45783768#0"/>
    <trip id="bus19" type="bus_bus" depart="67.93" departLane="best" departSpeed="max" from="55353714#0" to="45326122#3"/>
    <trip id="bus20" type="bus_bus" depart="71.50" departLane="best" from="-478638718#13" to="-23328570#13"/>
    <trip id="bus21" type="bus_bus" depart="75.08" departLane="best" departSpeed="max" from="-48161586#3" to="-86127790#2"/>
    <trip id="bus22" type="bus_bus" depart="78.65" departLane="best" from="-26175439" to="-26175439"/>
    <trip id="bus23" type="bus_bus" depart="82.23" departLane="best" from="-310175396" to="-85470048#1"/>
    <trip id="bus24" type="bus_bus" depart="85.80" departLane="best" from="29231523#5" to="146587942#0"/>
    <trip id="bus25" type="bus_bus" depart="89.38" departLane="best" departSpeed="max" from="-55353721" to="-55353721"/>
    <trip id="bus26" type="bus_bus" depart="92.95" departLane="best" departSpeed="max" from="-50728064" to="86127790#3"/>
    <trip id="bus27" type="bus_bus" depart="96.53" departLane="best" from="310175396" to="45783768#0"/>
    <trip id="bus28" type="bus_bus" depart="100.10" departLane="best" departSpeed="max" from="51189679" to="51189679"/>
    <trip id="bus29" type="bus_bus" depart="103.68" departLane="best" departSpeed="max" from="146587942#8" to="146587942#8"/>
    <trip id="bus30" type="bus_bus" depart="107.25" departLane="best" departSpeed="max" from="93057745#0" to="478638718#0"/>
    <trip id="bus31" type="bus_bus" depart="110.83" departLane="best" from="163975773" to="-485053287#12"/>
    <trip id="bus32" type="bus_bus" depart="114.40" departLane="best" from="-521697218#8" to="51479709"/>
    <trip id="bus33" type="bus_bus" depart="117.98" departLane="best" departSpeed="max" from="-48161586#3" to="-197773391#5"/>
    <trip id="bus34" type="bus_bus" depart="121.55" departLane="best" departSpeed="max" from="-51826550#6" to="-831144375#5"/>
    <trip id="bus35" type="bus_bus" depart="125.13" departLane="best" from="-478638719#6" to="86296553#6"/>
    <trip id="bus36" type="bus_bus" depart="128.70" departLane="best" from="559505781#0" to="-91375465#32"/>
    <trip id="bus37" type="bus_bus" depart="132.28" departLane="best" from="34922488#0" to="146588338#0"/>
    <trip id="bus38" type="bus_bus" depart="135.85" departLane="best" departSpeed="max" from="82652591#0" to="-26175439"/>
    <trip id="bus39" type="bus_bus" depart="139.43" departLane="best" from="49743610" to="77642916#0"/>
    <trip id="bus40" type="bus_bus" depart="143.00" departLane="best" from="197773382#0" to="-831125580"/>
    <trip id="bus41" type="bus_bus" depart="146.58" departLane="best" from="23328570#0" to="-809043969#5"/>
    <trip id="bus42" type="bus_bus" depart="150.15" departLane="best" from="95949167" to="559505781#0"/>
    <trip id="bus43" type="bus_bus" depart="153.73" departLane="best" from="93057745#2" to="28018709#0"/>
    <trip id="bus44" type="bus_bus" depart="157.30" departLane="best" from="29231523#5" to="23328574#0"/>
    <trip id="bus45" type="bus_bus" depart="160.88" departLane="best" departSpeed="max" from="-34922486#8" to="459849643#0"/>
    <trip id="bus46" type="bus_bus" depart="164.45" departLane="best" from="-51272618#7" to="-95949158"/>
    <trip id="bus47" type="bus_bus" depart="168.03" departLane="best" from="-23328568#1" to="146587943#10"/>
    <trip id="bus48" type="bus_bus" depart="171.60" departLane="best" from="93057745#2" to="310175396"/>
    <trip id="bus49" type="bus_bus" depart="175.18" departLane="best" from="-91999878#7" to="559505747#0"/>
    <trip id="bus50" type="bus_bus" depart="178.75" departLane="best" departSpeed="max" from="-130632678" to="51189679"/>
    <trip id="bus51" type="bus_bus" depart="182.33" departLane="best" from="45781461#0" to="34922486#0"/>
    <trip id="bus52" type="bus_bus" depart="185.91" departLane="best" departSpeed="max" from="-50728064" to="478638718#0"/>
    <trip id="bus53" type="bus_bus" depart="189.48" departLane="best" departSpeed="max" from="-34922486#8" to="23328574#0"/>
    <trip id="bus54" type="bus_bus" depart="193.06" departLane="best" from="86296553#0" to="91999878#0"/>
    <trip id="bus55" type="bus_bus" depart="196.63" departLane="best" from="-559505781#5" to="-831125580"/>
    <trip id="bus56" type="bus_bus" depart="200.21" departLane="best" from="124186701#0" to="124186701#0"/>
    <trip id="bus57" type="bus_bus" depart="203.78" departLane="best" departSpeed="max" from="82652591#0" to="56660178#7"/>
    <trip id="bus58" type="bus_bus" depart="207.36" departLane="best" departSpeed="max" from="-51748691#1" to="478638718#0"/>
    <trip id="bus59" type="bus_bus" depart="210.93" departLane="best" from="-27207208#4" to="51270413#0"/>
    <trip id="bus60" type="bus_bus" depart="214.51" departLane="best" from="51142644" to="34922486#0"/>
    <trip id="bus61" type="bus_bus" depart="218.08" departLane="best" from="51270435#0" to="33055472#0"/>
    <trip id="bus62" type="bus_bus" depart="221.66" departLane="best" from="-1026459819#1" to="1059305957#0"/>
    <trip id="bus63" type="bus_bus" depart="225.23" departLane="best" departSpeed="max" from="-130632678" to="85470044#3"/>
    <trip id="bus64" type="bus_bus" depart="228.81" departLane="best" departSpeed="max" from="72107990#0" to="51984177"/>
    <trip id="bus65" type="bus_bus" depart="232.38" departLane="best" from="-51818689#10" to="27207208#0"/>
    <trip id="bus66" type="bus_bus" depart="235.96" departLane="best" from="-56660178#6" to="-91009081"/>
    <trip id="bus67" type="bus_bus" depart="239.53" departLane="best" from="27475283" to="27475286#0"/>
    <trip id="bus68" type="bus_bus" depart="243.11" departLane="best" from="-23328574#5" to="51341652"/>
    <trip id="bus69" type="bus_bus" depart="246.68" departLane="best" from="51189676#0" to="-48135949#5"/>
    <trip id="bus70" type="bus_bus" depart="250.26" departLane="best" from="-91999878#6" to="39542408#0"/>
    <trip id="bus71" type="bus_bus" depart="253.83" departLane="best" from="49743610" to="56660178#7"/>
    <trip id="bus72" type="bus_bus" depart="257.41" departLane="best" from="-85470044#2" to="26175432#0"/>
    <trip id="bus73" type="bus_bus" depart="260.98" departLane="best" from="146588338#0" to="51189679"/>
    <trip id="bus74" type="bus_bus" depart="264.56" departLane="best" departSpeed="max" from="-459849643#1" to="91375465#0"/>
    <trip id="bus75" type="bus_bus" depart="268.13" departLane="best" departSpeed="max" from="93057745#0" to="478638721"/>
    <trip id="bus76" type="bus_bus" depart="271.71" departLane="best" departSpeed="max" from="-86127780#16" to="303644452#0"/>
    <trip id="bus77" type="bus_bus" depart="275.28" departLane="best" departSpeed="max" from="-384953637#2" to="-384953637#2"/>
    <trip id="bus78" type="bus_bus" depart="278.86" departLane="best" departSpeed="max" from="-51984177" to="45780621#0"/>
    <trip id="bus79" type="bus_bus" depart="282.43" departLane="best" departSpeed="max" from="-48161586#3" to="56660178#0"/>
    <trip id="bus80" type="bus_bus" depart="286.01" departLane="best" from="-253143836#18" to="459849643#0"/>
    <trip id="bus81" type="bus_bus" depart="289.58" departLane="best" departSpeed="max" from="-48161586#3" to="848463704#4"/>
    <trip id="bus82" type="bus_bus" depart="293.16" departLane="best" departSpeed="max" from="55353714#0" to="29231523#0"/>
    <trip id="bus83" type="bus_bus" depart="296.73" departLane="best" from="-485053287#11" to="48161586#0"/>
    <trip id="bus84" type="bus_bus" depart="300.31" departLane="best" from="48135007" to="-485053285#2"/>
    <trip id="bus85" type="bus_bus" depart="303.88" departLane="best" from="-85470048#1" to="44037281#0"/>
    <trip id="bus86" type="bus_bus" depart="307.46" departLane="best" from="-91999878#1" to="51479724#1"/>
    <trip id="bus87" type="bus_bus" depart="311.03" departLane="best" from="51479706" to="-521697218#8"/>
    <trip id="bus88" type="bus_bus" depart="314.61" departLane="best" from="310175395#0" to="-1026459819#1"/>
    <trip id="bus89" type="bus_bus" depart="318.18" departLane="best" departSpeed="max" from="-85470044#3" to="27207208#1"/>
    <trip id="bus90" type="bus_bus" depart="321.76" departLane="best" from="48135949#0" to="485053283"/>
    <trip id="bus91" type="bus_bus" depart="325.33" departLane="best" departSpeed="max" from="93057745#0" to="-42243993#5"/>
    <trip id="bus92" type="bus_bus" depart="328.91" departLane="best" from="-831144375#5" to="130632678"/>
    <trip id="bus93" type="bus_bus" depart="332.48" departLane="best" departSpeed="max" from="55353714#0" to="80397282#0"/>
    <trip id="bus94" type="bus_bus" depart="336.06" departLane="best" departSpeed="max" from="-45783768#6" to="253143836#0"/>
    <trip id="bus95" type="bus_bus" depart="339.63" departLane="best" from="-85470044#2" to="-85470048#1"/>
    <trip id="bus96" type="bus_bus" depart="343.21" departLane="best" from="-485067571#1" to="85470044#3"/>
    <trip id="bus97" type="bus_bus" depart="346.78" departLane="best" departSpeed="max" from="-86127780#16" to="559505781#0"/>
    <trip id="bus98" type="bus_bus" depart="350.36" departLane="best" departSpeed="max" from="146588339#0" to="-253143836#18"/>
    <trip id="bus99" type="bus_bus" depart="353.93" departLane="best" from="-831144375#1" to="51984177"/>
    <trip id="bus100" type="bus_bus" depart="357.51" departLane="best" from="-91999878#6" to="85470044#3"/>
    <trip id="bus101" type="bus_bus" depart="361.09" departLane="best" from="521699319" to="51272633#0"/>
    <trip id="bus102" type="bus_bus" depart="364.66" departLane="best" departSpeed="max" from="-559505745#9" to="-559505745#9"/>
    <trip id="bus103" type="bus_bus" depart="368.24" departLane="best" from="-831144375#5" to="27207208#0"/>
    <trip id="bus104" type="bus_bus" depart="371.81" departLane="best" departSpeed="max" from="93057745#2" to="93057745#2"/>
    <trip id="bus105" type="bus_bus" depart="375.39" departLane="best" from="49743610" to="51479724#1"/>
    <trip id="bus106" type="bus_bus" depart="378.96" departLane="best" from="86296553#0" to="-95949158"/>
    <trip id="bus107" type="bus_bus" depart="382.54" departLane="best" from="-86849761#1" to="936697397#0"/>
    <trip id="bus108" type="bus_bus" depart="386.11" departLane="best" from="158634332#0" to="51189678"/>
    <trip id="bus109" type="bus_bus" depart="389.69" departLane="best" from="-42243993#5" to="86296553#0"/>
    <trip id="bus110" type="bus_bus" depart="393.26" departLane="best" from="-91999878#6" to="45326122#9"/>
    <trip id="bus111" type="bus_bus" depart="396.84" departLane="best" departSpeed="max" from="146588339#0" to="51270450"/>
    <trip id="bus112" type="bus_bus" depart="400.41" departLane="best" from="197773683#0" to="45780621#0"/>
    <trip id="bus113" type="bus_bus" depart="403.99" departLane="best" from="-86371390" to="55360071#0"/>
    <trip id="bus114" type="bus_bus" depart="407.56" departLane="best" from="-433769297#7" to="92409486#0"/>
    <trip id="bus115" type="bus_bus" depart="411.14" departLane="best" from="-27207208#0" to="-51818689#18"/>
    <trip id="bus116" type="bus_bus" depart="414.71" departLane="best" from="26175435#0" to="485053284"/>
    <trip id="bus117" type="bus_bus" depart="418.29" departLane="best" from="485053285#0" to="-48135948#3"/>
    <trip id="bus118" type="bus_bus" depart="421.86" departLane="best" from="-72107992#2" to="-77642916#9"/>
    <trip id="bus119" type="bus_bus" depart="425.44" departLane="best" from="26175432#0" to="45783768#0"/>
    <trip id="bus120" type="bus_bus" depart="429.01" departLane="best" from="-85470044#0" to="45780621#0"/>
    <trip id="bus121" type="bus_bus" depart="432.59" departLane="best" from="146587942#8" to="85470048#0"/>
    <trip id="bus122" type="bus_bus" depart="436.16" departLane="best" from="478638718#3" to="51189676#0"/>
    <trip id="bus123" type="bus_bus" depart="439.74" departLane="best" from="-485053287#11" to="146588338#0"/>
    <trip id="bus124" type="bus_bus" depart="443.31" departLane="best" from="45326122#0" to="-86296553#12"/>
    <trip id="bus125" type="bus_bus" depart="446.89" departLane="best" departSpeed="max" from="-51826550#6" to="51270451"/>
    <trip id="bus126" type="bus_bus" depart="450.46" departLane="best" from="-831144375#1" to="936697397#0"/>
    <trip id="bus127" type="bus_bus" depart="454.04" departLane="best" from="-26175435#0" to="559505745#3"/>
    <trip id="bus128" type="bus_bus" depart="457.61" departLane="best" from="49743610" to="85470048#0"/>
    <trip id="bus129" type="bus_bus" depart="461.19" departLane="best" departSpeed="max" from="72107990#0" to="72107997#0"/>
    <trip id="bus130" type="bus_bus" depart="464.76" departLane="best" departSpeed="max" from="-51270415#7" to="-51270415#7"/>
    <trip id="bus131" type="bus_bus" depart="468.34" departLane="best" from="51702404#0" to="49743607#0"/>
    <trip id="bus132" type="bus_bus" depart="471.91" departLane="best" from="27207212#0" to="936697397#0"/>
    <trip id="bus133" type="bus_bus" depart="475.49" departLane="best" from="34922485#0" to="124186701#0"/>
    <trip id="bus134" type="bus_bus" depart="479.06" departLane="best" from="51479724#0" to="86296553#6"/>
    <trip id="bus135" type="bus_bus" depart="482.64" departLane="best" from="415418918#5" to="-86296553#1"/>
    <trip id="bus136" type="bus_bus" depart="486.21" departLane="best" departSpeed="max" from="-40864059#5" to="-48135948#3"/>
    <trip id="bus137" type="bus_bus" depart="489.79" departLane="best" departSpeed="max" from="-34922486#8" to="415418914#0"/>
    <trip id="bus138" type="bus_bus" depart="493.36" departLane="best" departSpeed="max" from="-50728064" to="45781497#5"/>
    <trip id="bus139" type="bus_bus" depart="496.94" departLane="best" departSpeed="max" from="48135948#0" to="-55353714#4"/>
    <trip id="bus140" type="bus_bus" depart="500.51" departLane="best" from="29231523#5" to="-831144375#1"/>
    <trip id="bus141" type="bus_bus" depart="504.09" departLane="best" departSpeed="max" from="848463704#4" to="848463704#4"/>
    <trip id="bus142" type="bus_bus" depart="507.66" departLane="best" from="521699318" to="-415418918#5"/>
    <trip id="bus143" type="bus_bus" depart="511.24" departLane="best" from="-1059305957#6" to="51479707"/>
    <trip id="bus144" type="bus_bus" depart="514.81" departLane="best" from="303644452#0" to="-831125580"/>
    <trip id="bus145" type="bus_bus" depart="518.39" departLane="best" departSpeed="max" from="-85470044#3" to="127703117#0"/>
    <trip id="bus146" type="bus_bus" depart="521.96" departLane="best" from="-26175435#0" to="74476994#0"/>
    <trip id="bus147" type="bus_bus" depart="525.54" departLane="best" from="778410663" to="34922486#0"/>
    <trip id="bus148" type="bus_bus" depart="529.11" departLane="best" from="51702404#0" to="45780621#0"/>
    <trip id="bus149" type="bus_bus" depart="532.69" departLane="best" from="-415418918#5" to="-48135949#5"/>
    <trip id="bus150" type="bus_bus" depart="536.26" departLane="best" from="-51818689#10" to="-831144375#5"/>
    <trip id="bus151" type="bus_bus" depart="539.84" departLane="best" from="51272633#0" to="559505747#0"/>
    <trip id="bus152" type="bus_bus" depart="543.42" departLane="best" from="74476999#0" to="-55353721"/>
    <trip id="bus153" type="bus_bus" depart="546.99" departLane="best" from="485053283" to="-478638718#11"/>
    <trip id="bus154" type="bus_bus" depart="550.57" departLane="best" from="51270435#0" to="-74476994#7"/>
    <trip id="bus155" type="bus_bus" depart="554.14" departLane="best" from="-848463704#3" to="45786301#0"/>
    <trip id="bus156" type="bus_bus" depart="557.72" departLane="best" from="-42243993#5" to="85470044#3"/>
    <trip id="bus157" type="bus_bus" depart="561.29" departLane="best" from="-55353721" to="92409495#5"/>
    <trip id="bus158" type="bus_bus" depart="564.87" departLane="best" from="51479708" to="741168371#0"/>
    <trip id="bus159" type="bus_bus" depart="568.44" departLane="best" departSpeed="max" from="51270415#0" to="51270415#0"/>
    <trip id="bus160" type="bus_bus" depart="572.02" departLane="best" departSpeed="max" from="85470044#3" to="85470044#3"/>
    <trip id="bus161" type="bus_bus" depart="575.59" departLane="best" from="51479704#0" to="56660178#0"/>
    <trip id="bus162" type="bus_bus" depart="579.17" departLane="best" from="51479708" to="-831144375#5"/>
    <trip id="bus163" type="bus_bus" depart="582.74" departLane="best" from="51270451" to="-478638718#2"/>
    <trip id="bus164" type="bus_bus" depart="586.32" departLane="best" departSpeed="max" from="-48161586#3" to="519034176#0"/>
    <trip id="bus165" type="bus_bus" depart="589.89" departLane="best" from="51272633#0" to="51272633#0"/>
    <trip id="bus166" type="bus_bus" depart="593.47" departLane="best" departSpeed="max" from="-521706064#1" to="-521706064#1"/>
    <trip id="bus167" type="bus_bus" depart="597.04" departLane="best" departSpeed="max" from="56660178#0" to="56660178#0"/>
    <trip id="bus168" type="bus_bus" depart="600.62" departLane="best" from="-91999878#1" to="85470048#0"/>
    <trip id="bus169" type="bus_bus" depart="604.19" departLane="best" from="309631702#0" to="-158634332#4"/>
    <trip id="bus170" type="bus_bus" depart="607.77" departLane="best" from="93057739#1" to="34922486#0"/>
    <trip id="bus171" type="bus_bus" depart="611.34" departLane="best" departSpeed="max" from="86127790#0" to="-48135948#3"/>
    <trip id="bus172" type="bus_bus" depart="614.92" departLane="best" from="91999878#7" to="91999878#7"/>
    <trip id="bus173" type="bus_bus" depart="618.49" departLane="best" from="-91375465#17" to="-831144375#1"/>
    <trip id="bus174" type="bus_bus" depart="622.07" departLane="best" departSpeed="max" from="-34922486#8" to="23328574#0"/>
    <trip id="bus175" type="bus_bus" depart="625.64" departLane="best" from="48135949#0" to="-91375465#32"/>
    <trip id="bus176" type="bus_bus" depart="629.22" departLane="best" from="-86127805#1" to="28018709#0"/>
    <trip id="bus177" type="bus_bus" depart="632.79" departLane="best" from="-74476994#7" to="45326122#3"/>
    <trip id="bus178" type="bus_bus" depart="636.37" departLane="best" from="-1026459819#1" to="85470044#3"/>
    <trip id="bus179" type="bus_bus" depart="639.94" departLane="best" from="146588338#0" to="51189678"/>
    <trip id="bus180" type="bus_bus" depart="643.52" departLane="best" from="-485053287#3" to="48162105"/>
    <trip id="bus181" type="bus_bus" depart="647.09" departLane="best" from="559505781#0" to="29231523#0"/>
    <trip id="bus182" type="bus_bus" depart="650.67" departLane="best" from="415418923#0" to="117618466"/>
    <trip id="bus183" type="bus_bus" depart="654.24" departLane="best" departSpeed="max" from="-51826550#6" to="521706070#0"/>
    <trip id="bus184" type="bus_bus" depart="657.82" departLane="best" departSpeed="max" from="48135948#0" to="-86296553#12"/>
    <trip id="bus185" type="bus_bus" depart="661.39" departLane="best" from="-51818689#18" to="197773389"/>
    <trip id="bus186" type="bus_bus" depart="664.97" departLane="best" departSpeed="max" from="-384953637#2" to="23328567#0"/>
    <trip id="bus187" type="bus_bus" depart="668.54" departLane="best" departSpeed="max" from="86127790#0" to="485053285#0"/>
    <trip id="bus188" type="bus_bus" depart="672.12" departLane="best" from="-77642916#9" to="45783768#0"/>
    <trip id="bus189" type="bus_bus" depart="675.69" departLane="best" departSpeed="max" from="-51748691#1" to="34922488#0"/>
    <trip id="bus190" type="bus_bus" depart="679.27" departLane="best" from="-1026459819#1" to="-86127790#2"/>
    <trip id="bus191" type="bus_bus" depart="682.84" departLane="best" departSpeed="max" from="-85470044#3" to="45326122#9"/>
    <trip id="bus192" type="bus_bus" depart="686.42" departLane="best" from="34922488#0" to="27207208#0"/>
    <trip id="bus193" type="bus_bus" depart="689.99" departLane="best" departSpeed="max" from="-86127780#16" to="559505745#3"/>
    <trip id="bus194" type="bus_bus" depart="693.57" departLane="best" from="91999878#0" to="-845110746"/>
    <trip id="bus195" type="bus_bus" depart="697.14" departLane="best" from="51272633#0" to="-51548270#7"/>
    <trip id="bus196" type="bus_bus" depart="700.72" departLane="best" from="27475283" to="29231523#5"/>
    <trip id="bus197" type="bus_bus" depart="704.29" departLane="best" from="-29231523#4" to="-86371390"/>
    <trip id="bus198" type="bus_bus" depart="707.87" departLane="best" from="51479724#0" to="51270451"/>
    <trip id="bus199" type="bus_bus" depart="711.44" departLane="best" from="45326122#3" to="45326122#3"/>
    <trip id="bus200" type="bus_bus" depart="715.02" departLane="best" departSpeed="max" from="-459849643#1" to="-175960788#3"/>
    <trip id="bus201" type="bus_bus" depart="718.59" departLane="best" from="-485053287#17" to="27475283"/>
    <trip id="bus202" type="bus_bus" depart="722.17" departLane="best" from="521706070#0" to="309631702#0"/>
    <trip id="bus203" type="bus_bus" depart="725.75" departLane="best" departSpeed="max" from="459849643#0" to="459849643#0"/>
    <trip id="bus204" type="bus_bus" depart="729.32" departLane="best" departSpeed="max" from="-459849643#1" to="49039484#0"/>
    <trip id="bus205" type="bus_bus" depart="732.90" departLane="best" from="23328567#0" to="-75978514#5"/>
    <trip id="bus206" type="bus_bus" depart="736.47" departLane="best" from="34922488#0" to="117618466"/>
    <trip id="bus207" type="bus_bus" depart="740.05" departLane="best" from="-485053287#11" to="51479706"/>
    <trip id="bus208" type="bus_bus" depart="743.62" departLane="best" departSpeed="max" from="-34922486#8" to="23328568#0"/>
    <trip id="bus209" type="bus_bus" depart="747.20" departLane="best" departSpeed="max" from="91999878#2" to="91999878#2"/>
    <trip id="bus210" type="bus_bus" depart="750.77" departLane="best" from="146587942#4" to="-253143836#18"/>
    <trip id="bus211" type="bus_bus" depart="754.35" departLane="best" from="-485053287#3" to="521706070#0"/>
    <trip id="bus212" type="bus_bus" depart="757.92" departLane="best" from="-86296553#12" to="51818689#11"/>
    <trip id="bus213" type="bus_bus" depart="761.50" departLane="best" from="-415418918#4" to="936697397#0"/>
    <trip id="bus214" type="bus_bus" depart="765.07" departLane="best" from="26175435#0" to="91375465#0"/>
    <trip id="bus215" type="bus_bus" depart="768.65" departLane="best" from="-72107992#2" to="45783768#0"/>
    <trip id="bus216" type="bus_bus" depart="772.22" departLane="best" departSpeed="max" from="48135948#0" to="27571057#0"/>
    <trip id="bus217" type="bus_bus" depart="775.80" departLane="best" departSpeed="max" from="51548270#0" to="34922488#0"/>
    <trip id="bus218" type="bus_bus" depart="779.37" departLane="best" from="-74476999#20" to="51270445"/>
    <trip id="bus219" type="bus_bus" depart="782.95" departLane="best" from="91999878#2" to="-831125580"/>
    <trip id="bus220" type="bus_bus" depart="786.52" departLane="best" from="485053287#0" to="459849643#0"/>
    <trip id="bus221" type="bus_bus" depart="790.10" departLane="best" from="51189676#0" to="-309631702#1"/>
    <trip id="bus222" type="bus_bus" depart="793.67" departLane="best" from="27478484#2" to="-85470044#0"/>
    <trip id="bus223" type="bus_bus" depart="797.25" departLane="best" from="-26175435#8" to="-86127790#2"/>
    <trip id="bus224" type="bus_bus" depart="800.82" departLane="best" departSpeed="max" from="-50728064" to="91999878#7"/>
    <trip id="bus225" type="bus_bus" depart="804.40" departLane="best" departSpeed="max" from="146588339#0" to="485053287#4"/>
    <trip id="bus226" type="bus_bus" depart="807.97" departLane="best" from="478638718#3" to="27475283"/>
    <trip id="bus227" type="bus_bus" depart="811.55" departLane="best" departSpeed="max" from="34922486#0" to="34922486#0"/>
    <trip id="bus228" type="bus_bus" depart="815.12" departLane="best" departSpeed="max" from="-55353714#4" to="-55353714#4"/>
    <trip id="bus229" type="bus_bus" depart="818.70" departLane="best" from="-85470044#0" to="848463704#0"/>
    <trip id="bus230" type="bus_bus" depart="822.27" departLane="best" from="-23328570#13" to="49039484#0"/>
    <trip id="bus231" type="bus_bus" depart="825.85" departLane="best" departSpeed="max" from="55353714#0" to="51479704#0"/>
    <trip id="bus232" type="bus_bus" depart="829.42" departLane="best" from="-72107992#2" to="117618466"/>
    <trip id="bus233" type="bus_bus" depart="833.00" departLane="best" from="-521706064#1" to="-51271000#9"/>
    <trip id="bus234" type="bus_bus" depart="836.57" departLane="best" departSpeed="max" from="55353714#0" to="91375465#18"/>
    <trip id="bus235" type="bus_bus" depart="840.15" departLane="best" from="-85470044#0" to="51270448#0"/>
    <trip id="bus236" type="bus_bus" depart="843.72" departLane="best" departSpeed="max" from="146588339#0" to="45781497#0"/>
    <trip id="bus237" type="bus_bus" depart="847.30" departLane="best" departSpeed="max" from="-48161586#3" to="559505781#0"/>
    <trip id="bus238" type="bus_bus" depart="850.87" departLane="best" from="-85470048#1" to="-197773382#8"/>
    <trip id="bus239" type="bus_bus" depart="854.45" departLane="best" departSpeed="max" from="-51984177" to="-485053286#2"/>
    <trip id="bus240" type="bus_bus" depart="858.02" departLane="best" from="845110746" to="-51272633#4"/>
    <trip id="bus241" type="bus_bus" depart="861.60" departLane="best" from="-91375465#17" to="-48135949#5"/>
    <trip id="bus242" type="bus_bus" depart="865.17" departLane="best" from="-27475288" to="-176437608#18"/>
    <trip id="bus243" type="bus_bus" depart="868.75" departLane="best" from="-80397282#3" to="44037281#0"/>