<?xml version="1.0" encoding="UTF-8"?>

<!-- generated on 2023-07-11 10:53:53.970637 by osmWebWizard.py v1_15_0+0002-e6790248698
<configuration>
    <end value="6000"/>
    <fringe-factor value="1"/>
    <insertion-density value="10.0"/>
    <max-distance value="2000.0"/>
    <net-file value="C:\Users\User\Documents\Sumo\tools\2023-07-11-10-53-40\osm.net.xml.gz"/>
    <pedestrians value="True"/>
    <route-file value="C:\Users\User\Documents\Sumo\tools\2023-07-11-10-53-40\osm.pedestrian.rou.xml"/>
    <output-trip-file value="C:\Users\User\Documents\Sumo\tools\2023-07-11-10-53-40\osm.pedestrian.trips.xml"/>
    <prefix value="ped"/>
    <vehicle-class value="pedestrian"/>
</configuration>
-->

<!-- generated on 2023-07-11 10:53:53 by Eclipse SUMO duarouter Version 1.15.0
<configuration xmlns:xsi="http://www.w3.org/2001/XMLSchema-instance" xsi:noNamespaceSchemaLocation="http://sumo.dlr.de/xsd/duarouterConfiguration.xsd">

    <input>
        <net-file value="C:\Users\User\Documents\Sumo\tools\2023-07-11-10-53-40\osm.net.xml.gz"/>
        <route-files value="C:\Users\User\Documents\Sumo\tools\2023-07-11-10-53-40\osm.pedestrian.trips.xml"/>
    </input>

    <output>
        <output-file value="C:\Users\User\Documents\Sumo\tools\2023-07-11-10-53-40\osm.pedestrian.rou.xml"/>
        <alternatives-output value="NUL"/>
    </output>

    <time>
        <begin value="0"/>
        <end value="6000"/>
    </time>

    <report>
        <no-warnings value="true"/>
        <ignore-errors value="true"/>
        <no-step-log value="true"/>
    </report>

</configuration>
-->

<routes xmlns:xsi="http://www.w3.org/2001/XMLSchema-instance" xsi:noNamespaceSchemaLocation="http://sumo.dlr.de/xsd/routes_file.xsd">
    <vType id="ped_pedestrian" vClass="pedestrian"/>
    <person id="ped12" type="ped_pedestrian" depart="399.55">
        <walk edges="-51548270#7"/>
    </person>
    <person id="ped15" type="ped_pedestrian" depart="499.44">
        <walk edges="-45783768#6 45783768#0"/>
    </person>
    <person id="ped18" type="ped_pedestrian" depart="599.32">
        <walk edges="-74476994#7 74476994#0"/>
    </person>
    <person id="ped21" type="ped_pedestrian" depart="699.21">
        <walk edges="-40864059#5 -831125580"/>
    </person>
    <person id="ped26" type="ped_pedestrian" depart="865.69">
        <walk edges="-49743607#4"/>
    </person>
    <person id="ped37" type="ped_pedestrian" depart="1231.94">
        <walk edges="-51548270#7 51548270#0"/>
    </person>
    <person id="ped38" type="ped_pedestrian" depart="1265.24">
        <walk edges="74476994#0"/>
    </person>
    <person id="ped41" type="ped_pedestrian" depart="1365.12">
        <walk edges="-49743607#4 49743607#0"/>
    </person>
    <person id="ped43" type="ped_pedestrian" depart="1431.72">
        <walk edges="74476994#0"/>
    </person>
    <person id="ped45" type="ped_pedestrian" depart="1498.31">
        <walk edges="51826550#0"/>
    </person>
    <person id="ped47" type="ped_pedestrian" depart="1564.90">
        <walk edges="-45783768#6"/>
    </person>
    <person id="ped49" type="ped_pedestrian" depart="1631.49">
        <walk edges="49743607#0 -49743607#4"/>
    </person>
    <person id="ped54" type="ped_pedestrian" depart="1797.97">
        <walk edges="51826550#0"/>
    </person>
    <person id="ped62" type="ped_pedestrian" depart="2064.33">
        <walk edges="-40864059#5 -831125580"/>
    </person>
    <person id="ped67" type="ped_pedestrian" depart="2230.81">
        <walk edges="-831125580 -40864059#5"/>
    </person>
    <person id="ped75" type="ped_pedestrian" depart="2497.18">
        <walk edges="146588338#0 146588339#0"/>
    </person>
    <person id="ped76" type="ped_pedestrian" depart="2530.47">
        <walk edges="-49743607#4"/>
    </person>
    <person id="ped80" type="ped_pedestrian" depart="2663.66">
        <walk edges="-146588339#4 146588338#0"/>
    </person>
    <person id="ped88" type="ped_pedestrian" depart="2930.02">
        <walk edges="51702404#0"/>
    </person>
    <person id="ped91" type="ped_pedestrian" depart="3029.91">
        <walk edges="-51548270#7 51548270#0"/>
    </person>
    <person id="ped93" type="ped_pedestrian" depart="3096.50">
        <walk edges="-51826550#6 51826550#0"/>
    </person>
    <person id="ped101" type="ped_pedestrian" depart="3362.87">
        <walk edges="-49743607#4"/>
    </person>
    <person id="ped105" type="ped_pedestrian" depart="3496.05">
        <walk edges="-74476994#7"/>
    </person>
    <person id="ped111" type="ped_pedestrian" depart="3695.83">
        <walk edges="-49743607#4"/>
    </person>
    <person id="ped113" type="ped_pedestrian" depart="3762.42">
        <walk edges="485053285#0"/>
    </person>
    <person id="ped114" type="ped_pedestrian" depart="3795.71">
        <walk edges="-831125580 -40864059#5"/>
    </person>
    <person id="ped118" type="ped_pedestrian" depart="3928.90">
        <walk edges="-831125580 -40864059#5"/>
    </person>
    <person id="ped121" type="ped_pedestrian" depart="4028.78">
        <walk edges="49743607#0 -49743607#4"/>
    </person>
    <person id="ped127" type="ped_pedestrian" depart="4228.56">
        <walk edges="51826550#0"/>
    </person>
    <person id="ped128" type="ped_pedestrian" depart="4261.85">
        <walk edges="-51548270#7 51548270#0"/>
    </person>
    <person id="ped131" type="ped_pedestrian" depart="4361.74">
        <walk edges="146588338#0"/>
    </person>
    <person id="ped132" type="ped_pedestrian" depart="4395.04">
        <walk edges="-485053285#2 485053285#0"/>
    </person>
    <person id="ped137" type="ped_pedestrian" depart="4561.51">
        <walk edges="-74476994#7 74476994#0"/>
    </person>
    <person id="ped138" type="ped_pedestrian" depart="4594.81">
        <walk edges="49743607#0"/>
    </person>
    <person id="ped140" type="ped_pedestrian" depart="4661.40">
        <walk edges="-45783768#6 45783768#0"/>
    </person>
    <person id="ped145" type="ped_pedestrian" depart="4827.88">
        <walk edges="-51548270#7"/>
    </person>
    <person id="ped149" type="ped_pedestrian" depart="4961.06">
        <walk edges="146588339#0"/>
    </person>
    <person id="ped154" type="ped_pedestrian" depart="5127.54">
        <walk edges="45783768#0"/>
    </person>
    <person id="ped163" type="ped_pedestrian" depart="5427.20">
        <walk edges="-146588339#4 146588338#0"/>
    </person>
    <person id="ped173" type="ped_pedestrian" depart="5760.16">
        <walk edges="45783768#0"/>
    </person>
    <person id="ped174" type="ped_pedestrian" depart="5793.46">
        <walk edges="146588339#0 -146588339#4"/>
    </person>
    <person id="ped175" type="ped_pedestrian" depart="5826.75">
        <walk edges="51548270#0 -51548270#7"/>
    </person>
    <person id="ped176" type="ped_pedestrian" depart="5860.05">
        <walk edges="-49743607#4"/>
    </person>
</routes>
