<?xml version="1.0" encoding="UTF-8"?>

<!-- generated on 2023-07-11 10:53:55.980245 by osmWebWizard.py v1_15_0+0002-e6790248698
<configuration>
    <end value="6000"/>
    <fringe-factor value="5"/>
    <fringe-start-attributes value="departSpeed=&quot;max&quot;"/>
    <insertion-density value="8.0"/>
    <min-distance.fringe value="10.0"/>
    <min-distance value="600.0"/>
    <net-file value="C:\Users\User\Documents\Sumo\tools\2023-07-11-10-53-40\osm.net.xml.gz"/>
    <remove-loops value="True"/>
    <route-file value="C:\Users\User\Documents\Sumo\tools\2023-07-11-10-53-40\osm.truck.rou.xml"/>
    <trip-attributes value="departLane=&quot;best&quot;"/>
    <output-trip-file value="C:\Users\User\Documents\Sumo\tools\2023-07-11-10-53-40\osm.truck.trips.xml"/>
    <prefix value="truck"/>
    <validate value="True"/>
    <vclass value="truck"/>
    <vehicle-class value="truck"/>
</configuration>
-->

<!-- generated on 2023-07-11 10:53:55 by Eclipse SUMO duarouter Version 1.15.0
<configuration xmlns:xsi="http://www.w3.org/2001/XMLSchema-instance" xsi:noNamespaceSchemaLocation="http://sumo.dlr.de/xsd/duarouterConfiguration.xsd">

    <input>
        <net-file value="C:\Users\User\Documents\Sumo\tools\2023-07-11-10-53-40\osm.net.xml.gz"/>
        <route-files value="C:\Users\User\Documents\Sumo\tools\2023-07-11-10-53-40\osm.truck.trips.xml"/>
    </input>

    <output>
        <output-file value="C:\Users\User\Documents\Sumo\tools\2023-07-11-10-53-40\osm.truck.trips.xml.tmp"/>
        <alternatives-output value="NUL"/>
        <write-trips value="true"/>
    </output>

    <processing>
        <remove-loops value="true"/>
    </processing>

    <time>
        <begin value="0"/>
        <end value="6000"/>
    </time>

    <report>
        <no-warnings value="true"/>
        <ignore-errors value="true"/>
        <no-step-log value="true"/>
    </report>

</configuration>
-->

<routes xmlns:xsi="http://www.w3.org/2001/XMLSchema-instance" xsi:noNamespaceSchemaLocation="http://sumo.dlr.de/xsd/routes_file.xsd">
    <vType id="truck_truck" vClass="truck"/>
    <trip id="truck0" type="truck_truck" depart="0.00" departLane="best" from="303644452#2" to="-175960788#3"/>
    <trip id="truck1" type="truck_truck" depart="1.79" departLane="best" departSpeed="max" from="-50728064" to="-50728064"/>
    <trip id="truck2" type="truck_truck" depart="3.58" departLane="best" from="33055472#0" to="485053285#0"/>
    <trip id="truck3" type="truck_truck" depart="5.36" departLane="best" from="-72107992#2" to="-415418914#3"/>
    <trip id="truck4" type="truck_truck" depart="7.15" departLane="best" from="-85470044#2" to="-197773382#8"/>
    <trip id="truck5" type="truck_truck" depart="8.94" departLane="best" from="48135949#0" to="27571057#0"/>
    <trip id="truck6" type="truck_truck" depart="10.73" departLane="best" departSpeed="max" from="-55353714#4" to="-55353714#4"/>
    <trip id="truck7" type="truck_truck" depart="12.51" departLane="best" from="310175396" to="34922486#0"/>
    <trip id="truck8" type="truck_truck" depart="14.30" departLane="best" departSpeed="max" from="-48161586#3" to="45780621#0"/>
    <trip id="truck9" type="truck_truck" depart="16.09" departLane="best" from="485053284" to="117618466"/>
    <trip id="truck10" type="truck_truck" depart="17.88" departLane="best" from="51479706" to="49743607#0"/>
    <trip id="truck11" type="truck_truck" depart="19.66" departLane="best" departSpeed="max" from="-51984177" to="-51270413#7"/>
    <trip id="truck12" type="truck_truck" depart="21.45" departLane="best" from="-86849761#1" to="127703117#0"/>
    <trip id="truck13" type="truck_truck" depart="23.24" departLane="best" from="29231523#0" to="-415418927"/>
    <trip id="truck14" type="truck_truck" depart="25.03" departLane="best" from="521699319" to="45781497#0"/>
    <trip id="truck15" type="truck_truck" depart="26.81" departLane="best" from="51479706" to="51189679"/>
    <trip id="truck16" type="truck_truck" depart="28.60" departLane="best" from="146588153#0" to="92409495#5"/>
    <trip id="truck17" type="truck_truck" depart="30.39" departLane="best" departSpeed="max" from="415418914#0" to="415418914#0"/>
    <trip id="truck18" type="truck_truck" depart="32.18" departLane="best" departSpeed="max" from="51548270#0" to="45783768#0"/>
    <trip id="truck19" type="truck_truck" depart="33.96" departLane="best" departSpeed="max" from="55353714#0" to="45326122#3"/>
    <trip id="truck20" type="truck_truck" depart="35.75" departLane="best" from="-478638718#13" to="-23328570#13"/>
    <trip id="truck21" type="truck_truck" depart="37.54" departLane="best" departSpeed="max" from="-48161586#3" to="-86127790#2"/>
    <trip id="truck22" type="truck_truck" depart="39.33" departLane="best" from="-26175439" to="-26175439"/>
    <trip id="truck23" type="truck_truck" depart="41.11" departLane="best" from="-310175396" to="-85470048#1"/>
    <trip id="truck24" type="truck_truck" depart="42.90" departLane="best" from="29231523#5" to="146587942#0"/>
    <trip id="truck25" type="truck_truck" depart="44.69" departLane="best" departSpeed="max" from="-55353721" to="-55353721"/>
    <trip id="truck26" type="truck_truck" depart="46.48" departLane="best" departSpeed="max" from="-50728064" to="86127790#3"/>
    <trip id="truck27" type="truck_truck" depart="48.26" departLane="best" from="310175396" to="45783768#0"/>
    <trip id="truck28" type="truck_truck" depart="50.05" departLane="best" departSpeed="max" from="51189679" to="51189679"/>
    <trip id="truck29" type="truck_truck" depart="51.84" departLane="best" departSpeed="max" from="146587942#8" to="146587942#8"/>
    <trip id="truck30" type="truck_truck" depart="53.63" departLane="best" departSpeed="max" from="93057745#0" to="478638718#0"/>
    <trip id="truck31" type="truck_truck" depart="55.41" departLane="best" from="163975773" to="-485053287#12"/>
    <trip id="truck32" type="truck_truck" depart="57.20" departLane="best" from="-521697218#8" to="51479709"/>
    <trip id="truck33" type="truck_truck" depart="58.99" departLane="best" departSpeed="max" from="-48161586#3" to="-197773391#5"/>
    <trip id="truck34" type="truck_truck" depart="60.78" departLane="best" departSpeed="max" from="-51826550#6" to="-831144375#5"/>
    <trip id="truck35" type="truck_truck" depart="62.56" departLane="best" from="-478638719#6" to="86296553#6"/>
    <trip id="truck36" type="truck_truck" depart="64.35" departLane="best" from="559505781#0" to="-91375465#32"/>
    <trip id="truck37" type="truck_truck" depart="66.14" departLane="best" from="34922488#0" to="146588338#0"/>
    <trip id="truck38" type="truck_truck" depart="67.93" departLane="best" departSpeed="max" from="82652591#0" to="-26175439"/>
    <trip id="truck39" type="truck_truck" depart="69.71" departLane="best" from="49743610" to="77642916#0"/>
    <trip id="truck40" type="truck_truck" depart="71.50" departLane="best" from="197773382#0" to="-831125580"/>
    <trip id="truck41" type="truck_truck" depart="73.29" departLane="best" from="23328570#0" to="-809043969#5"/>
    <trip id="truck42" type="truck_truck" depart="75.08" departLane="best" from="95949167" to="559505781#0"/>
    <trip id="truck43" type="truck_truck" depart="76.86" departLane="best" from="93057745#2" to="28018709#0"/>
    <trip id="truck44" type="truck_truck" depart="78.65" departLane="best" from="29231523#5" to="23328574#0"/>
    <trip id="truck45" type="truck_truck" depart="80.44" departLane="best" departSpeed="max" from="-34922486#8" to="459849643#0"/>
    <trip id="truck46" type="truck_truck" depart="82.23" departLane="best" from="-51272618#7" to="-95949158"/>
    <trip id="truck47" type="truck_truck" depart="84.01" departLane="best" from="-23328568#1" to="146587943#10"/>
    <trip id="truck48" type="truck_truck" depart="85.80" departLane="best" from="93057745#2" to="310175396"/>
    <trip id="truck49" type="truck_truck" depart="87.59" departLane="best" from="-91999878#7" to="559505747#0"/>
    <trip id="truck50" type="truck_truck" depart="89.38" departLane="best" departSpeed="max" from="-130632678" to="51189679"/>
    <trip id="truck51" type="truck_truck" depart="91.17" departLane="best" from="45781461#0" to="34922486#0"/>
    <trip id="truck52" type="truck_truck" depart="92.95" departLane="best" departSpeed="max" from="-50728064" to="478638718#0"/>
    <trip id="truck53" type="truck_truck" depart="94.74" departLane="best" departSpeed="max" from="-34922486#8" to="23328574#0"/>
    <trip id="truck54" type="truck_truck" depart="96.53" departLane="best" from="86296553#0" to="91999878#0"/>
    <trip id="truck55" type="truck_truck" depart="98.32" departLane="best" from="-559505781#5" to="-831125580"/>
    <trip id="truck56" type="truck_truck" depart="100.10" departLane="best" from="124186701#0" to="124186701#0"/>
    <trip id="truck57" type="truck_truck" depart="101.89" departLane="best" departSpeed="max" from="82652591#0" to="56660178#7"/>
    <trip id="truck58" type="truck_truck" depart="103.68" departLane="best" departSpeed="max" from="-51748691#1" to="478638718#0"/>
    <trip id="truck59" type="truck_truck" depart="105.47" departLane="best" from="-27207208#4" to="51270413#0"/>
    <trip id="truck60" type="truck_truck" depart="107.25" departLane="best" from="51142644" to="34922486#0"/>
    <trip id="truck61" type="truck_truck" depart="109.04" departLane="best" from="51270435#0" to="33055472#0"/>
    <trip id="truck62" type="truck_truck" depart="110.83" departLane="best" from="-1026459819#1" to="1059305957#0"/>
    <trip id="truck63" type="truck_truck" depart="112.62" departLane="best" departSpeed="max" from="-130632678" to="85470044#3"/>
    <trip id="truck64" type="truck_truck" depart="114.40" departLane="best" departSpeed="max" from="72107990#0" to="51984177"/>
    <trip id="truck65" type="truck_truck" depart="116.19" departLane="best" from="-51818689#10" to="27207208#0"/>
    <trip id="truck66" type="truck_truck" depart="117.98" departLane="best" from="-56660178#6" to="-91009081"/>
    <trip id="truck67" type="truck_truck" depart="119.77" departLane="best" from="27475283" to="27475286#0"/>
    <trip id="truck68" type="truck_truck" depart="121.55" departLane="best" from="-23328574#5" to="51341652"/>
    <trip id="truck69" type="truck_truck" depart="123.34" departLane="best" from="51189676#0" to="-48135949#5"/>
    <trip id="truck70" type="truck_truck" depart="125.13" departLane="best" from="-91999878#6" to="39542408#0"/>
    <trip id="truck71" type="truck_truck" depart="126.92" departLane="best" from="49743610" to="56660178#7"/>
    <trip id="truck72" type="truck_truck" depart="128.70" departLane="best" from="-85470044#2" to="26175432#0"/>
    <trip id="truck73" type="truck_truck" depart="130.49" departLane="best" from="146588338#0" to="51189679"/>
    <trip id="truck74" type="truck_truck" depart="132.28" departLane="best" departSpeed="max" from="-459849643#1" to="91375465#0"/>
    <trip id="truck75" type="truck_truck" depart="134.07" departLane="best" departSpeed="max" from="93057745#0" to="478638721"/>
    <trip id="truck76" type="truck_truck" depart="135.85" departLane="best" departSpeed="max" from="-86127780#16" to="303644452#0"/>
    <trip id="truck77" type="truck_truck" depart="137.64" departLane="best" departSpeed="max" from="-384953637#2" to="-384953637#2"/>
    <trip id="truck78" type="truck_truck" depart="139.43" departLane="best" departSpeed="max" from="-51984177" to="45780621#0"/>
    <trip id="truck79" type="truck_truck" depart="141.22" departLane="best" departSpeed="max" from="-48161586#3" to="56660178#0"/>
    <trip id="truck80" type="truck_truck" depart="143.00" departLane="best" from="-253143836#18" to="459849643#0"/>
    <trip id="truck81" type="truck_truck" depart="144.79" departLane="best" departSpeed="max" from="-48161586#3" to="848463704#4"/>
    <trip id="truck82" type="truck_truck" depart="146.58" departLane="best" departSpeed="max" from="55353714#0" to="29231523#0"/>
    <trip id="truck83" type="truck_truck" depart="148.37" departLane="best" from="-485053287#11" to="48161586#0"/>
    <trip id="truck84" type="truck_truck" depart="150.15" departLane="best" from="48135007" to="-485053285#2"/>
    <trip id="truck85" type="truck_truck" depart="151.94" departLane="best" from="-85470048#1" to="44037281#0"/>
    <trip id="truck86" type="truck_truck" depart="153.73" departLane="best" from="-91999878#1" to="51479724#1"/>
    <trip id="truck87" type="truck_truck" depart="155.52" departLane="best" from="51479706" to="-521697218#8"/>
    <trip id="truck88" type="truck_truck" depart="157.30" departLane="best" from="310175395#0" to="-1026459819#1"/>
    <trip id="truck89" type="truck_truck" depart="159.09" departLane="best" departSpeed="max" from="-85470044#3" to="27207208#1"/>
    <trip id="truck90" type="truck_truck" depart="160.88" departLane="best" from="48135949#0" to="485053283"/>
    <trip id="truck91" type="truck_truck" depart="162.67" departLane="best" departSpeed="max" from="93057745#0" to="-42243993#5"/>
    <trip id="truck92" type="truck_truck" depart="164.45" departLane="best" from="-831144375#5" to="130632678"/>
    <trip id="truck93" type="truck_truck" depart="166.24" departLane="best" departSpeed="max" from="55353714#0" to="80397282#0"/>
    <trip id="truck94" type="truck_truck" depart="168.03" departLane="best" departSpeed="max" from="-45783768#6" to="253143836#0"/>
    <trip id="truck95" type="truck_truck" depart="169.82" departLane="best" from="-85470044#2" to="-85470048#1"/>
    <trip id="truck96" type="truck_truck" depart="171.60" departLane="best" from="-485067571#1" to="85470044#3"/>
    <trip id="truck97" type="truck_truck" depart="173.39" departLane="best" departSpeed="max" from="-86127780#16" to="559505781#0"/>
    <trip id="truck98" type="truck_truck" depart="175.18" departLane="best" departSpeed="max" from="146588339#0" to="-253143836#18"/>
    <trip id="truck99" type="truck_truck" depart="176.97" departLane="best" from="-831144375#1" to="51984177"/>
    <trip id="truck100" type="truck_truck" depart="178.75" departLane="best" from="-91999878#6" to="85470044#3"/>
    <trip id="truck101" type="truck_truck" depart="180.54" departLane="best" from="521699319" to="51272633#0"/>
    <trip id="truck102" type="truck_truck" depart="182.33" departLane="best" departSpeed="max" from="-559505745#9" to="-559505745#9"/>
    <trip id="truck103" type="truck_truck" depart="184.12" departLane="best" from="-831144375#5" to="27207208#0"/>
    <trip id="truck104" type="truck_truck" depart="185.91" departLane="best" departSpeed="max" from="93057745#2" to="93057745#2"/>
    <trip id="truck105" type="truck_truck" depart="187.69" departLane="best" from="49743610" to="51479724#1"/>
    <trip id="truck106" type="truck_truck" depart="189.48" departLane="best" from="86296553#0" to="-95949158"/>
    <trip id="truck107" type="truck_truck" depart="191.27" departLane="best" from="-86849761#1" to="936697397#0"/>
    <trip id="truck108" type="truck_truck" depart="193.06" departLane="best" from="158634332#0" to="51189678"/>
    <trip id="truck109" type="truck_truck" depart="194.84" departLane="best" from="-42243993#5" to="86296553#0"/>
    <trip id="truck110" type="truck_truck" depart="196.63" departLane="best" from="-91999878#6" to="45326122#9"/>
    <trip id="truck111" type="truck_truck" depart="198.42" departLane="best" departSpeed="max" from="146588339#0" to="51270450"/>
    <trip id="truck112" type="truck_truck" depart="200.21" departLane="best" from="197773683#0" to="45780621#0"/>
    <trip id="truck113" type="truck_truck" depart="201.99" departLane="best" from="-86371390" to="55360071#0"/>
    <trip id="truck114" type="truck_truck" depart="203.78" departLane="best" from="-433769297#7" to="92409486#0"/>
    <trip id="truck115" type="truck_truck" depart="205.57" departLane="best" from="-27207208#0" to="-51818689#18"/>
    <trip id="truck116" type="truck_truck" depart="207.36" departLane="best" from="26175435#0" to="485053284"/>
    <trip id="truck117" type="truck_truck" depart="209.14" departLane="best" from="485053285#0" to="-48135948#3"/>
    <trip id="truck118" type="truck_truck" depart="210.93" departLane="best" from="-72107992#2" to="-77642916#9"/>
    <trip id="truck119" type="truck_truck" depart="212.72" departLane="best" from="26175432#0" to="45783768#0"/>
    <trip id="truck120" type="truck_truck" depart="214.51" departLane="best" from="-85470044#0" to="45780621#0"/>
    <trip id="truck121" type="truck_truck" depart="216.29" departLane="best" from="146587942#8" to="85470048#0"/>
    <trip id="truck122" type="truck_truck" depart="218.08" departLane="best" from="478638718#3" to="51189676#0"/>
    <trip id="truck123" type="truck_truck" depart="219.87" departLane="best" from="-485053287#11" to="146588338#0"/>
    <trip id="truck124" type="truck_truck" depart="221.66" departLane="best" from="45326122#0" to="-86296553#12"/>
    <trip id="truck125" type="truck_truck" depart="223.44" departLane="best" departSpeed="max" from="-51826550#6" to="51270451"/>
    <trip id="truck126" type="truck_truck" depart="225.23" departLane="best" from="-831144375#1" to="936697397#0"/>
    <trip id="truck127" type="truck_truck" depart="227.02" departLane="best" from="-26175435#0" to="559505745#3"/>
    <trip id="truck128" type="truck_truck" depart="228.81" departLane="best" from="49743610" to="85470048#0"/>
    <trip id="truck129" type="truck_truck" depart="230.59" departLane="best" departSpeed="max" from="72107990#0" to="72107997#0"/>
    <trip id="truck130" type="truck_truck" depart="232.38" departLane="best" departSpeed="max" from="-51270415#7" to="-51270415#7"/>
    <trip id="truck131" type="truck_truck" depart="234.17" departLane="best" from="51702404#0" to="49743607#0"/>
    <trip id="truck132" type="truck_truck" depart="235.96" departLane="best" from="27207212#0" to="936697397#0"/>
    <trip id="truck133" type="truck_truck" depart="237.74" departLane="best" from="34922485#0" to="124186701#0"/>
    <trip id="truck134" type="truck_truck" depart="239.53" departLane="best" from="51479724#0" to="86296553#6"/>
    <trip id="truck135" type="truck_truck" depart="241.32" departLane="best" from="415418918#5" to="-86296553#1"/>
    <trip id="truck136" type="truck_truck" depart="243.11" departLane="best" departSpeed="max" from="-40864059#5" to="-48135948#3"/>
    <trip id="truck137" type="truck_truck" depart="244.89" departLane="best" departSpeed="max" from="-34922486#8" to="415418914#0"/>
    <trip id="truck138" type="truck_truck" depart="246.68" departLane="best" departSpeed="max" from="-50728064" to="45781497#5"/>
    <trip id="truck139" type="truck_truck" depart="248.47" departLane="best" departSpeed="max" from="48135948#0" to="-55353714#4"/>
    <trip id="truck140" type="truck_truck" depart="250.26" departLane="best" from="29231523#5" to="-831144375#1"/>
    <trip id="truck141" type="truck_truck" depart="252.04" departLane="best" departSpeed="max" from="848463704#4" to="848463704#4"/>
    <trip id="truck142" type="truck_truck" depart="253.83" departLane="best" from="521699318" to="-415418918#5"/>
    <trip id="truck143" type="truck_truck" depart="255.62" departLane="best" from="-1059305957#6" to="51479707"/>
    <trip id="truck144" type="truck_truck" depart="257.41" departLane="best" from="303644452#0" to="-831125580"/>
    <trip id="truck145" type="truck_truck" depart="259.19" departLane="best" departSpeed="max" from="-85470044#3" to="127703117#0"/>
    <trip id="truck146" type="truck_truck" depart="260.98" departLane="best" from="-26175435#0" to="74476994#0"/>
    <trip id="truck147" type="truck_truck" depart="262.77" departLane="best" from="778410663" to="34922486#0"/>
    <trip id="truck148" type="truck_truck" depart="264.56" departLane="best" from="51702404#0" to="45780621#0"/>
    <trip id="truck149" type="truck_truck" depart="266.34" departLane="best" from="-415418918#5" to="-48135949#5"/>
    <trip id="truck150" type="truck_truck" depart="268.13" departLane="best" from="-51818689#10" to="-831144375#5"/>
    <trip id="truck151" type="truck_truck" depart="269.92" departLane="best" from="51272633#0" to="559505747#0"/>
    <trip id="truck152" type="truck_truck" depart="271.71" departLane="best" from="74476999#0" to="-55353721"/>
    <trip id="truck153" type="truck_truck" depart="273.50" departLane="best" from="485053283" to="-478638718#11"/>
    <trip id="truck154" type="truck_truck" depart="275.28" departLane="best" from="51270435#0" to="-74476994#7"/>
    <trip id="truck155" type="truck_truck" depart="277.07" departLane="best" from="-848463704#3" to="45786301#0"/>
    <trip id="truck156" type="truck_truck" depart="278.86" departLane="best" from="-42243993#5" to="85470044#3"/>
    <trip id="truck157" type="truck_truck" depart="280.65" departLane="best" from="-55353721" to="92409495#5"/>
    <trip id="truck158" type="truck_truck" depart="282.43" departLane="best" from="51479708" to="741168371#0"/>
    <trip id="truck159" type="truck_truck" depart="284.22" departLane="best" departSpeed="max" from="51270415#0" to="51270415#0"/>
    <trip id="truck160" type="truck_truck" depart="286.01" departLane="best" departSpeed="max" from="85470044#3" to="85470044#3"/>
    <trip id="truck161" type="truck_truck" depart="287.80" departLane="best" from="51479704#0" to="56660178#0"/>
    <trip id="truck162" type="truck_truck" depart="289.58" departLane="best" from="51479708" to="-831144375#5"/>
    <trip id="truck163" type="truck_truck" depart="291.37" departLane="best" from="51270451" to="-478638718#2"/>
    <trip id="truck164" type="truck_truck" depart="293.16" departLane="best" departSpeed="max" from="-48161586#3" to="519034176#0"/>
    <trip id="truck165" type="truck_truck" depart="294.95" departLane="best" from="51272633#0" to="51272633#0"/>
    <trip id="truck166" type="truck_truck" depart="296.73" departLane="best" departSpeed="max" from="-521706064#1" to="-521706064#1"/>
    <trip id="truck167" type="truck_truck" depart="298.52" departLane="best" departSpeed="max" from="56660178#0" to="56660178#0"/>
    <trip id="truck168" type="truck_truck" depart="300.31" departLane="best" from="-91999878#1" to="85470048#0"/>
    <trip id="truck169" type="truck_truck" depart="302.10" departLane="best" from="309631702#0" to="-158634332#4"/>
    <trip id="truck170" type="truck_truck" depart="303.88" departLane="best" from="93057739#1" to="34922486#0"/>
    <trip id="truck171" type="truck_truck" depart="305.67" departLane="best" departSpeed="max" from="86127790#0" to="-48135948#3"/>
    <trip id="truck172" type="truck_truck" depart="307.46" departLane="best" from="91999878#7" to="91999878#7"/>
    <trip id="truck173" type="truck_truck" depart="309.25" departLane="best" from="-91375465#17" to="-831144375#1"/>
    <trip id="truck174" type="truck_truck" depart="311.03" departLane="best" departSpeed="max" from="-34922486#8" to="23328574#0"/>
    <trip id="truck175" type="truck_truck" depart="312.82" departLane="best" from="48135949#0" to="-91375465#32"/>
    <trip id="truck176" type="truck_truck" depart="314.61" departLane="best" from="-86127805#1" to="28018709#0"/>
    <trip id="truck177" type="truck_truck" depart="316.40" departLane="best" from="-74476994#7" to="45326122#3"/>
    <trip id="truck178" type="truck_truck" depart="318.18" departLane="best" from="-1026459819#1" to="85470044#3"/>
    <trip id="truck179" type="truck_truck" depart="319.97" departLane="best" from="146588338#0" to="51189678"/>
    <trip id="truck180" type="truck_truck" depart="321.76" departLane="best" from="-485053287#3" to="48162105"/>
    <trip id="truck181" type="truck_truck" depart="323.55" departLane="best" from="559505781#0" to="29231523#0"/>
    <trip id="truck182" type="truck_truck" depart="325.33" departLane="best" from="415418923#0" to="117618466"/>
    <trip id="truck183" type="truck_truck" depart="327.12" departLane="best" departSpeed="max" from="-51826550#6" to="521706070#0"/>
    <trip id="truck184" type="truck_truck" depart="328.91" departLane="best" departSpeed="max" from="48135948#0" to="-86296553#12"/>
    <trip id="truck185" type="truck_truck" depart="330.70" departLane="best" from="-51818689#18" to="197773389"/>
    <trip id="truck186" type="truck_truck" depart="332.48" departLane="best" departSpeed="max" from="-384953637#2" to="23328567#0"/>
    <trip id="truck187" type="truck_truck" depart="334.27" departLane="best" departSpeed="max" from="86127790#0" to="485053285#0"/>
    <trip id="truck188" type="truck_truck" depart="336.06" departLane="best" from="-77642916#9" to="45783768#0"/>
    <trip id="truck189" type="truck_truck" depart="337.85" departLane="best" departSpeed="max" from="-51748691#1" to="34922488#0"/>
    <trip id="truck190" type="truck_truck" depart="339.63" departLane="best" from="-1026459819#1" to="-86127790#2"/>
    <trip id="truck191" type="truck_truck" depart="341.42" departLane="best" departSpeed="max" from="-85470044#3" to="45326122#9"/>
    <trip id="truck192" type="truck_truck" depart="343.21" departLane="best" from="34922488#0" to="27207208#0"/>
    <trip id="truck193" type="truck_truck" depart="345.00" departLane="best" departSpeed="max" from="-86127780#16" to="559505745#3"/>
    <trip id="truck194" type="truck_truck" depart="346.78" departLane="best" from="91999878#0" to="-845110746"/>
    <trip id="truck195" type="truck_truck" depart="348.57" departLane="best" from="51272633#0" to="-51548270#7"/>
    <trip id="truck196" type="truck_truck" depart="350.36" departLane="best" from="27475283" to="29231523#5"/>
    <trip id="truck197" type="truck_truck" depart="352.15" departLane="best" from="-29231523#4" to="-86371390"/>
    <trip id="truck198" type="truck_truck" depart="353.93" departLane="best" from="51479724#0" to="51270451"/>
    <trip id="truck199" type="truck_truck" depart="355.72" departLane="best" from="45326122#3" to="45326122#3"/>
    <trip id="truck200" type="truck_truck" depart="357.51" departLane="best" departSpeed="max" from="-459849643#1" to="-175960788#3"/>
    <trip id="truck201" type="truck_truck" depart="359.30" departLane="best" from="-485053287#17" to="27475283"/>
    <trip id="truck202" type="truck_truck" depart="361.09" departLane="best" from="521706070#0" to="309631702#0"/>
    <trip id="truck203" type="truck_truck" depart="362.87" departLane="best" departSpeed="max" from="459849643#0" to="459849643#0"/>
    <trip id="truck204" type="truck_truck" depart="364.66" departLane="best" departSpeed="max" from="-459849643#1" to="49039484#0"/>
    <trip id="truck205" type="truck_truck" depart="366.45" departLane="best" from="23328567#0" to="-75978514#5"/>
    <trip id="truck206" type="truck_truck" depart="368.24" departLane="best" from="34922488#0" to="117618466"/>
    <trip id="truck207" type="truck_truck" depart="370.02" departLane="best" from="-485053287#11" to="51479706"/>
    <trip id="truck208" type="truck_truck" depart="371.81" departLane="best" departSpeed="max" from="-34922486#8" to="23328568#0"/>
    <trip id="truck209" type="truck_truck" depart="373.60" departLane="best" departSpeed="max" from="91999878#2" to="91999878#2"/>
    <trip id="truck210" type="truck_truck" depart="375.39" departLane="best" from="146587942#4" to="-253143836#18"/>
    <trip id="truck211" type="truck_truck" depart="377.17" departLane="best" from="-485053287#3" to="521706070#0"/>
    <trip id="truck212" type="truck_truck" depart="378.96" departLane="best" from="-86296553#12" to="51818689#11"/>
    <trip id="truck213" type="truck_truck" depart="380.75" departLane="best" from="-415418918#4" to="936697397#0"/>
    <trip id="truck214" type="truck_truck" depart="382.54" departLane="best" from="26175435#0" to="91375465#0"/>
    <trip id="truck215" type="truck_truck" depart="384.32" departLane="best" from="-72107992#2" to="45783768#0"/>
    <trip id="truck216" type="truck_truck" depart="386.11" departLane="best" departSpeed="max" from="48135948#0" to="27571057#0"/>
    <trip id="truck217" type="truck_truck" depart="387.90" departLane="best" departSpeed="max" from="51548270#0" to="34922488#0"/>
    <trip id="truck218" type="truck_truck" depart="389.69" departLane="best" from="-74476999#20" to="51270445"/>
    <trip id="truck219" type="truck_truck" depart="391.47" departLane="best" from="91999878#2" to="-831125580"/>
    <trip id="truck220" type="truck_truck" depart="393.26" departLane="best" from="485053287#0" to="459849643#0"/>
    <trip id="truck221" type="truck_truck" depart="395.05" departLane="best" from="51189676#0" to="-309631702#1"/>
    <trip id="truck222" type="truck_truck" depart="396.84" departLane="best" from="27478484#2" to="-85470044#0"/>
    <trip id="truck223" type="truck_truck" depart="398.62" departLane="best" from="-26175435#8" to="-86127790#2"/>
    <trip id="truck224" type="truck_truck" depart="400.41" departLane="best" departSpeed="max" from="-50728064" to="91999878#7"/>
    <trip id="truck225" type="truck_truck" depart="402.20" departLane="best" departSpeed="max" from="146588339#0" to="485053287#4"/>
    <trip id="truck226" type="truck_truck" depart="403.99" departLane="best" from="478638718#3" to="27475283"/>
    <trip id="truck227" type="truck_truck" depart="405.77" departLane="best" departSpeed="max" from="34922486#0" to="34922486#0"/>
    <trip id="truck228" type="truck_truck" depart="407.56" departLane="best" departSpeed="max" from="-55353714#4" to="-55353714#4"/>
    <trip id="truck229" type="truck_truck" depart="409.35" departLane="best" from="-85470044#0" to="848463704#0"/>
    <trip id="truck230" type="truck_truck" depart="411.14" departLane="best" from="-23328570#13" to="49039484#0"/>
    <trip id="truck231" type="truck_truck" depart="412.92" departLane="best" departSpeed="max" from="55353714#0" to="51479704#0"/>