<?xml version="1.0" encoding="UTF-8"?>

<!-- generated on 2023-07-11 10:53:53.482112 by osmWebWizard.py v1_15_0+0002-e6790248698
<configuration>
    <allow-fringe.min-length value="1000.0"/>
    <end value="6000"/>
    <fringe-factor value="5"/>
    <fringe-start-attributes value="departSpeed=&quot;max&quot;"/>
    <insertion-density value="12.0"/>
    <lanes value="True"/>
    <min-distance.fringe value="10.0"/>
    <min-distance value="300.0"/>
    <net-file value="C:\Users\User\Documents\Sumo\tools\2023-07-11-10-53-40\osm.net.xml.gz"/>
    <remove-loops value="True"/>
    <route-file value="C:\Users\User\Documents\Sumo\tools\2023-07-11-10-53-40\osm.passenger.rou.xml"/>
    <trip-attributes value="departLane=&quot;best&quot;"/>
    <output-trip-file value="C:\Users\User\Documents\Sumo\tools\2023-07-11-10-53-40\osm.passenger.trips.xml"/>
    <prefix value="veh"/>
    <validate value="True"/>
    <vehicle-class value="passenger"/>
</configuration>
-->

<!-- generated on 2023-07-11 10:53:53 by Eclipse SUMO duarouter Version 1.15.0
<configuration xmlns:xsi="http://www.w3.org/2001/XMLSchema-instance" xsi:noNamespaceSchemaLocation="http://sumo.dlr.de/xsd/duarouterConfiguration.xsd">

    <input>
        <net-file value="C:\Users\User\Documents\Sumo\tools\2023-07-11-10-53-40\osm.net.xml.gz"/>
        <route-files value="C:\Users\User\Documents\Sumo\tools\2023-07-11-10-53-40\osm.passenger.trips.xml"/>
    </input>

    <output>
        <output-file value="C:\Users\User\Documents\Sumo\tools\2023-07-11-10-53-40\osm.passenger.trips.xml.tmp"/>
        <alternatives-output value="NUL"/>
        <write-trips value="true"/>
    </output>

    <processing>
        <remove-loops value="true"/>
    </processing>

    <time>
        <begin value="0"/>
        <end value="6000"/>
    </time>

    <report>
        <no-warnings value="true"/>
        <ignore-errors value="true"/>
        <no-step-log value="true"/>
    </report>

</configuration>
-->

<routes xmlns:xsi="http://www.w3.org/2001/XMLSchema-instance" xsi:noNamespaceSchemaLocation="http://sumo.dlr.de/xsd/routes_file.xsd">
    <vType id="veh_passenger" vClass="passenger"/>
    <trip id="veh0" type="veh_passenger" depart="0.00" departLane="best" from="45786301#1" to="-197773382#8"/>
    <trip id="veh1" type="veh_passenger" depart="1.19" departLane="best" from="-51984186#1" to="-831125580"/>
    <trip id="veh2" type="veh_passenger" depart="2.38" departLane="best" from="51270448#0" to="51189679"/>
    <trip id="veh3" type="veh_passenger" depart="3.58" departLane="best" departSpeed="max" from="82652591#0" to="82652591#0"/>
    <trip id="veh4" type="veh_passenger" depart="4.77" departLane="best" from="146587943#11" to="-207904727#14"/>
    <trip id="veh5" type="veh_passenger" depart="5.96" departLane="best" from="51271000#0" to="34922486#0"/>
    <trip id="veh6" type="veh_passenger" depart="7.15" departLane="best" departSpeed="max" from="-72107992#2" to="-72107992#2"/>
    <trip id="veh7" type="veh_passenger" depart="8.34" departLane="best" from="-51818689#10" to="45780621#0"/>
    <trip id="veh8" type="veh_passenger" depart="9.53" departLane="best" from="51271000#0" to="459849643#0"/>
    <trip id="veh9" type="veh_passenger" depart="10.73" departLane="best" from="51479724#0" to="-124186701#0"/>
    <trip id="veh10" type="veh_passenger" depart="11.92" departLane="best" from="-51738618" to="51270445"/>
    <trip id="veh11" type="veh_passenger" depart="13.11" departLane="best" from="-85470044#2" to="-51548270#7"/>
    <trip id="veh12" type="veh_passenger" depart="14.30" departLane="best" from="93057739#0" to="146587942#8"/>
    <trip id="veh13" type="veh_passenger" depart="15.49" departLane="best" departSpeed="max" from="-34922486#8" to="-48135948#3"/>
    <trip id="veh14" type="veh_passenger" depart="16.68" departLane="best" from="-559505781#5" to="-48135949#5"/>
    <trip id="veh15" type="veh_passenger" depart="17.88" departLane="best" from="51818689#11" to="51341652"/>
    <trip id="veh16" type="veh_passenger" depart="19.07" departLane="best" from="27207212#1" to="93057739#1"/>
    <trip id="veh17" type="veh_passenger" depart="20.26" departLane="best" from="-91375465#17" to="91999878#7"/>
    <trip id="veh18" type="veh_passenger" depart="21.45" departLane="best" from="521706070#0" to="485053284"/>
    <trip id="veh19" type="veh_passenger" depart="22.64" departLane="best" from="-72107992#2" to="45786301#1"/>
    <trip id="veh20" type="veh_passenger" depart="23.83" departLane="best" from="27207212#1" to="-26175435#8"/>
    <trip id="veh21" type="veh_passenger" depart="25.03" departLane="best" from="51272633#0" to="-124186701#0"/>
    <trip id="veh22" type="veh_passenger" depart="26.22" departLane="best" from="310175395#2" to="845110746"/>
    <trip id="veh23" type="veh_passenger" depart="27.41" departLane="best" departSpeed="max" from="-384953637#2" to="23328567#2"/>
    <trip id="veh24" type="veh_passenger" depart="28.60" departLane="best" from="45326122#9" to="163975773"/>
    <trip id="veh25" type="veh_passenger" depart="29.79" departLane="best" from="86296553#2" to="-77642916#9"/>
    <trip id="veh26" type="veh_passenger" depart="30.98" departLane="best" departSpeed="max" from="-51984177" to="92409495#0"/>
    <trip id="veh27" type="veh_passenger" depart="32.18" departLane="best" from="478638719#0" to="48161586#0"/>
    <trip id="veh28" type="veh_passenger" depart="33.37" departLane="best" departSpeed="max" from="-48161586#3" to="51341652"/>
    <trip id="veh29" type="veh_passenger" depart="34.56" departLane="best" from="-48135948#9" to="197773683#4"/>
    <trip id="veh30" type="veh_passenger" depart="35.75" departLane="best" departSpeed="max" from="93057745#0" to="49039484#0"/>
    <trip id="veh31" type="veh_passenger" depart="36.94" departLane="best" from="27478484#2-AddedOnRampEdge" to="51270413#5"/>
    <trip id="veh32" type="veh_passenger" depart="38.13" departLane="best" from="-559505745#9" to="51748691#0"/>
    <trip id="veh33" type="veh_passenger" depart="39.33" departLane="best" from="-23328567#1" to="-23328567#1"/>
    <trip id="veh34" type="veh_passenger" depart="40.52" departLane="best" from="80397282#0" to="-91009081"/>
    <trip id="veh35" type="veh_passenger" depart="41.71" departLane="best" from="-51270413#4" to="92409495#5"/>
    <trip id="veh36" type="veh_passenger" depart="42.90" departLane="best" from="80397282#0" to="134024021"/>
    <trip id="veh37" type="veh_passenger" depart="44.09" departLane="best" departSpeed="max" from="48135948#0" to="23328570#0"/>
    <trip id="veh38" type="veh_passenger" depart="45.28" departLane="best" departSpeed="max" from="86127790#0" to="27478484#2"/>
    <trip id="veh39" type="veh_passenger" depart="46.48" departLane="best" departSpeed="max" from="-86127790#2" to="-86127790#2"/>
    <trip id="veh40" type="veh_passenger" depart="47.67" departLane="best" from="27478484#2-AddedOnRampEdge" to="124186701#1"/>
    <trip id="veh41" type="veh_passenger" depart="48.86" departLane="best" from="-310175396" to="85470044#1"/>
    <trip id="veh42" type="veh_passenger" depart="50.05" departLane="best" from="23328567#0" to="-831125580"/>
    <trip id="veh43" type="veh_passenger" depart="51.24" departLane="best" from="95949167" to="34922488#0"/>
    <trip id="veh44" type="veh_passenger" depart="52.43" departLane="best" departSpeed="max" from="-34922486#8" to="26175439"/>
    <trip id="veh45" type="veh_passenger" depart="53.63" departLane="best" departSpeed="max" from="-40864059#5" to="-485053286#2"/>
    <trip id="veh46" type="veh_passenger" depart="54.82" departLane="best" from="51479724#0" to="27207208#0"/>
    <trip id="veh47" type="veh_passenger" depart="56.01" departLane="best" from="-27207208#0" to="207904727#0"/>
    <trip id="veh48" type="veh_passenger" depart="57.20" departLane="best" from="93057745#2" to="45326122#0"/>
    <trip id="veh49" type="veh_passenger" depart="58.39" departLane="best" departSpeed="max" from="93057745#0" to="-74476994#7"/>
    <trip id="veh50" type="veh_passenger" depart="59.58" departLane="best" departSpeed="max" from="-130632678" to="51272618#0"/>
    <trip id="veh51" type="veh_passenger" depart="60.78" departLane="best" from="-485053287#12" to="45326122#9"/>
    <trip id="veh52" type="veh_passenger" depart="61.97" departLane="best" departSpeed="max" from="-51984177" to="49039484#0"/>
    <trip id="veh53" type="veh_passenger" depart="63.16" departLane="best" departSpeed="max" from="-40864059#5" to="27207213#0"/>
    <trip id="veh54" type="veh_passenger" depart="64.35" departLane="best" from="146587943#5" to="92409495#5"/>
    <trip id="veh55" type="veh_passenger" depart="65.54" departLane="best" from="-80397282#3" to="124186701#1"/>
    <trip id="veh56" type="veh_passenger" depart="66.74" departLane="best" from="-23328568#1" to="-55353721"/>
    <trip id="veh57" type="veh_passenger" depart="67.93" departLane="best" departSpeed="max" from="86127790#0" to="80397282#0"/>
    <trip id="veh58" type="veh_passenger" depart="69.12" departLane="best" departSpeed="max" from="485053288#0" to="485053288#0"/>
    <trip id="veh59" type="veh_passenger" depart="70.31" departLane="best" from="45326122#9" to="-51548270#7"/>
    <trip id="veh60" type="veh_passenger" depart="71.50" departLane="best" from="51479703" to="45780621#0"/>
    <trip id="veh61" type="veh_passenger" depart="72.69" departLane="best" from="51479708" to="45326122#0"/>
    <trip id="veh62" type="veh_passenger" depart="73.89" departLane="best" from="23328570#14" to="146587942#13"/>
    <trip id="veh63" type="veh_passenger" depart="75.08" departLane="best" departSpeed="max" from="91999878#2" to="91999878#2"/>
    <trip id="veh64" type="veh_passenger" depart="76.27" departLane="best" from="809043969#0" to="521699319"/>
    <trip id="veh65" type="veh_passenger" depart="77.46" departLane="best" from="-74476994#7" to="309631702#0"/>
    <trip id="veh66" type="veh_passenger" depart="78.65" departLane="best" from="809043969#0" to="92409495#5"/>
    <trip id="veh67" type="veh_passenger" depart="79.84" departLane="best" from="-34922485#18" to="-310175395#1"/>
    <trip id="veh68" type="veh_passenger" depart="81.04" departLane="best" from="29231523#5" to="51479724#0"/>
    <trip id="veh69" type="veh_passenger" depart="82.23" departLane="best" from="51479704#0" to="49743610"/>
    <trip id="veh70" type="veh_passenger" depart="83.42" departLane="best" from="163975773" to="45781461#0"/>
    <trip id="veh71" type="veh_passenger" depart="84.61" departLane="best" departSpeed="max" from="80397282#0" to="80397282#0"/>
    <trip id="veh72" type="veh_passenger" depart="85.80" departLane="best" from="146587942#11" to="80397282#0"/>
    <trip id="veh73" type="veh_passenger" depart="86.99" departLane="best" from="27207213#0" to="51479704#0"/>
    <trip id="veh74" type="veh_passenger" depart="88.19" departLane="best" from="49743610" to="134024021"/>
    <trip id="veh75" type="veh_passenger" depart="89.38" departLane="best" from="93057745#2" to="49743607#0"/>
    <trip id="veh76" type="veh_passenger" depart="90.57" departLane="best" from="146587942#5" to="415418923#3"/>
    <trip id="veh77" type="veh_passenger" depart="91.76" departLane="best" from="42243993#0" to="-831144375#1"/>
    <trip id="veh78" type="veh_passenger" depart="92.95" departLane="best" departSpeed="max" from="459849643#0" to="459849643#0"/>
    <trip id="veh79" type="veh_passenger" depart="94.14" departLane="best" from="-51738618" to="-831125580"/>
    <trip id="veh80" type="veh_passenger" depart="95.34" departLane="best" from="-29231523#4" to="485053287#12"/>
    <trip id="veh81" type="veh_passenger" depart="96.53" departLane="best" departSpeed="max" from="72107990#0" to="-34922485#18"/>
    <trip id="veh82" type="veh_passenger" depart="97.72" departLane="best" departSpeed="max" from="-51748691#1" to="51189679"/>
    <trip id="veh83" type="veh_passenger" depart="98.91" departLane="best" from="-51270413#7" to="-51270413#4"/>
    <trip id="veh84" type="veh_passenger" depart="100.10" departLane="best" from="91999878#0" to="45783768#0"/>
    <trip id="veh85" type="veh_passenger" depart="101.29" departLane="best" from="163975773" to="51826550#0"/>
    <trip id="veh86" type="veh_passenger" depart="102.49" departLane="best" from="51818689#11" to="51818689#11"/>
    <trip id="veh87" type="veh_passenger" depart="103.68" departLane="best" departSpeed="max" from="-384953637#2" to="27207212#1"/>
    <trip id="veh88" type="veh_passenger" depart="104.87" departLane="best" from="146587942#11" to="27571057#0"/>
    <trip id="veh89" type="veh_passenger" depart="106.06" departLane="best" from="51270445" to="51189679"/>
    <trip id="veh90" type="veh_passenger" depart="107.25" departLane="best" departSpeed="max" from="93057745#0" to="-48135948#3"/>
    <trip id="veh91" type="veh_passenger" depart="108.44" departLane="best" from="117618466" to="146587943#10"/>
    <trip id="veh92" type="veh_passenger" depart="109.64" departLane="best" from="72107997#0" to="-86127790#2"/>
    <trip id="veh93" type="veh_passenger" depart="110.83" departLane="best" from="485053287#0" to="27475288"/>
    <trip id="veh94" type="veh_passenger" depart="112.02" departLane="best" from="146587943#11" to="-95949158"/>
    <trip id="veh95" type="veh_passenger" depart="113.21" departLane="best" departSpeed="max" from="-51826550#6" to="91375465#0"/>
    <trip id="veh96" type="veh_passenger" depart="114.40" departLane="best" from="146587943#10" to="74476994#0"/>
    <trip id="veh97" type="veh_passenger" depart="115.59" departLane="best" from="27478484#0" to="27207208#1"/>
    <trip id="veh98" type="veh_passenger" depart="116.79" departLane="best" from="-831144375#1" to="55360071#0"/>
    <trip id="veh99" type="veh_passenger" depart="117.98" departLane="best" departSpeed="max" from="93057745#0" to="-91999878#1"/>
    <trip id="veh100" type="veh_passenger" depart="119.17" departLane="best" from="-559505781#5" to="521697218#0"/>
    <trip id="veh101" type="veh_passenger" depart="120.36" departLane="best" from="197773389" to="80397282#0"/>
    <trip id="veh102" type="veh_passenger" depart="121.55" departLane="best" from="117618466" to="309631702#0"/>
    <trip id="veh103" type="veh_passenger" depart="122.75" departLane="best" from="-91375465#17" to="93057745#2"/>
    <trip id="veh104" type="veh_passenger" depart="123.94" departLane="best" departSpeed="max" from="51826550#0" to="51826550#0"/>
    <trip id="veh105" type="veh_passenger" depart="125.13" departLane="best" from="-146588039#9" to="27207208#0"/>
    <trip id="veh106" type="veh_passenger" depart="126.32" departLane="best" from="93057739#0" to="936697397#0"/>
    <trip id="veh107" type="veh_passenger" depart="127.51" departLane="best" from="27478484#2" to="51271000#0"/>
    <trip id="veh108" type="veh_passenger" depart="128.70" departLane="best" from="478638718#3" to="130632678"/>
    <trip id="veh109" type="veh_passenger" depart="129.90" departLane="best" departSpeed="max" from="93057745#0" to="45786301#1"/>
    <trip id="veh110" type="veh_passenger" depart="131.09" departLane="best" from="27475283" to="51479707"/>
    <trip id="veh111" type="veh_passenger" depart="132.28" departLane="best" from="-253143836#18" to="459849643#0"/>
    <trip id="veh112" type="veh_passenger" depart="133.47" departLane="best" from="-23328569#2" to="56660178#7"/>
    <trip id="veh113" type="veh_passenger" depart="134.66" departLane="best" from="478638718#12" to="92409495#5"/>
    <trip id="veh114" type="veh_passenger" depart="135.85" departLane="best" from="310175395#2" to="559505781#0"/>
    <trip id="veh115" type="veh_passenger" depart="137.05" departLane="best" from="415418918#5" to="51189679"/>
    <trip id="veh116" type="veh_passenger" depart="138.24" departLane="best" departSpeed="max" from="-51748691#1" to="-485053287#12"/>
    <trip id="veh117" type="veh_passenger" depart="139.43" departLane="best" departSpeed="max" from="82652591#0" to="-86127790#2"/>
    <trip id="veh118" type="veh_passenger" depart="140.62" departLane="best" from="415418914#0" to="485053284"/>
    <trip id="veh119" type="veh_passenger" depart="141.81" departLane="best" from="134024021" to="459849643#0"/>
    <trip id="veh120" type="veh_passenger" depart="143.00" departLane="best" from="26175439" to="92409486#0"/>
    <trip id="veh121" type="veh_passenger" depart="144.20" departLane="best" departSpeed="max" from="-50728064" to="310175396"/>
    <trip id="veh122" type="veh_passenger" depart="145.39" departLane="best" departSpeed="max" from="-51748691#1" to="23328570#0"/>
    <trip id="veh123" type="veh_passenger" depart="146.58" departLane="best" from="-485053285#2" to="130632678"/>
    <trip id="veh124" type="veh_passenger" depart="147.77" departLane="best" from="-80397282#3" to="51479708"/>
    <trip id="veh125" type="veh_passenger" depart="148.96" departLane="best" from="-309631702#1" to="27478484#2"/>
    <trip id="veh126" type="veh_passenger" depart="150.15" departLane="best" from="-831144375#1" to="936697397#0"/>
    <trip id="veh127" type="veh_passenger" depart="151.35" departLane="best" from="309631702#0" to="80397282#0"/>
    <trip id="veh128" type="veh_passenger" depart="152.54" departLane="best" departSpeed="max" from="92409486#0" to="92409486#0"/>
    <trip id="veh129" type="veh_passenger" depart="153.73" departLane="best" departSpeed="max" from="82652591#0" to="831144375#2"/>
    <trip id="veh130" type="veh_passenger" depart="154.92" departLane="best" from="86296553#2" to="-51738618"/>
    <trip id="veh131" type="veh_passenger" depart="156.11" departLane="best" departSpeed="max" from="55353714#0" to="51270445"/>
    <trip id="veh132" type="veh_passenger" depart="157.30" departLane="best" from="-45780621#22" to="93057745#2"/>
    <trip id="veh133" type="veh_passenger" depart="158.50" departLane="best" departSpeed="max" from="48135948#0" to="124186701#0"/>
    <trip id="veh134" type="veh_passenger" depart="159.69" departLane="best" from="521699318" to="130632678"/>
    <trip id="veh135" type="veh_passenger" depart="160.88" departLane="best" from="48135949#0" to="92409495#0"/>
    <trip id="veh136" type="veh_passenger" depart="162.07" departLane="best" departSpeed="max" from="-485053286#2" to="-485053286#2"/>
    <trip id="veh137" type="veh_passenger" depart="163.26" departLane="best" departSpeed="max" from="-40864059#5" to="45781461#9"/>
    <trip id="veh138" type="veh_passenger" depart="164.45" departLane="best" departSpeed="max" from="-51984177" to="48161586#0"/>
    <trip id="veh139" type="veh_passenger" depart="165.65" departLane="best" from="51270415#0" to="-74476994#7"/>
    <trip id="veh140" type="veh_passenger" depart="166.84" departLane="best" from="45786301#0" to="124186701#1"/>
    <trip id="veh141" type="veh_passenger" depart="168.03" departLane="best" from="197773683#0" to="85470044#3"/>
    <trip id="veh142" type="veh_passenger" depart="169.22" departLane="best" from="-433769297#7" to="478638718#0"/>
    <trip id="veh143" type="veh_passenger" depart="170.41" departLane="best" from="146587942#11" to="-95949158"/>
    <trip id="veh144" type="veh_passenger" depart="171.60" departLane="best" from="117618466" to="51748691#0"/>
    <trip id="veh145" type="veh_passenger" depart="172.80" departLane="best" from="45786301#1" to="-86296553#5"/>
    <trip id="veh146" type="veh_passenger" depart="173.99" departLane="best" from="51270451" to="45781461#4"/>
    <trip id="veh147" type="veh_passenger" depart="175.18" departLane="best" from="146587942#13" to="-127703117#6"/>
    <trip id="veh148" type="veh_passenger" depart="176.37" departLane="best" from="310175395#0" to="845110746"/>
    <trip id="veh149" type="veh_passenger" depart="177.56" departLane="best" from="-848463704#3" to="45780952#0"/>
    <trip id="veh150" type="veh_passenger" depart="178.75" departLane="best" departSpeed="max" from="55353714#0" to="45786301#10"/>
    <trip id="veh151" type="veh_passenger" depart="179.95" departLane="best" departSpeed="max" from="-459849643#1" to="49743610"/>
    <trip id="veh152" type="veh_passenger" depart="181.14" departLane="best" from="-74476994#7" to="85470044#3"/>
    <trip id="veh153" type="veh_passenger" depart="182.33" departLane="best" departSpeed="max" from="51548270#0" to="74476994#0"/>
    <trip id="veh154" type="veh_passenger" depart="183.52" departLane="best" from="845110746" to="77642916#0"/>
    <trip id="veh155" type="veh_passenger" depart="184.71" departLane="best" departSpeed="max" from="-51826550#6" to="-48135948#3"/>
    <trip id="veh156" type="veh_passenger" depart="185.91" departLane="best" from="51479708" to="845110746"/>
    <trip id="veh157" type="veh_passenger" depart="187.10" departLane="best" from="-124186701#0" to="485053285#0"/>
    <trip id="veh158" type="veh_passenger" depart="188.29" departLane="best" departSpeed="max" from="-459849643#1" to="91999878#7"/>
    <trip id="veh159" type="veh_passenger" depart="189.48" departLane="best" from="74476994#0" to="93057741#0"/>
    <trip id="veh160" type="veh_passenger" depart="190.67" departLane="best" from="51985375" to="845110746"/>
    <trip id="veh161" type="veh_passenger" depart="191.86" departLane="best" departSpeed="max" from="51479704#0" to="51479704#0"/>
    <trip id="veh162" type="veh_passenger" depart="193.06" departLane="best" departSpeed="max" from="91999878#7" to="91999878#7"/>
    <trip id="veh163" type="veh_passenger" depart="194.25" departLane="best" departSpeed="max" from="51548270#0" to="74476999#0"/>
    <trip id="veh164" type="veh_passenger" depart="195.44" departLane="best" from="51479724#0" to="86849761#0"/>
    <trip id="veh165" type="veh_passenger" depart="196.63" departLane="best" from="51479723#0" to="48162105"/>
    <trip id="veh166" type="veh_passenger" depart="197.82" departLane="best" from="77642916#0" to="-741168371#2"/>
    <trip id="veh167" type="veh_passenger" depart="199.01" departLane="best" from="51272618#0" to="27207212#1"/>
    <trip id="veh168" type="veh_passenger" depart="200.21" departLane="best" from="146588338#0" to="134024020#0"/>
    <trip id="veh169" type="veh_passenger" depart="201.40" departLane="best" from="51479724#1" to="-831144375#5"/>
    <trip id="veh171" type="veh_passenger" depart="203.78" departLane="best" from="845110746" to="-74476999#20"/>
    <trip id="veh172" type="veh_passenger" depart="204.97" departLane="best" from="93057741#0" to="23328567#2"/>
    <trip id="veh173" type="veh_passenger" depart="206.16" departLane="best" from="45786301#10" to="-23328574#5"/>
    <trip id="veh174" type="veh_passenger" depart="207.36" departLane="best" departSpeed="max" from="93057745#0" to="45326122#9"/>
    <trip id="veh175" type="veh_passenger" depart="208.55" departLane="best" from="91999878#7" to="-485053286#2"/>
    <trip id="veh176" type="veh_passenger" depart="209.74" departLane="best" departSpeed="max" from="93057745#0" to="-55353721"/>
    <trip id="veh177" type="veh_passenger" depart="210.93" departLane="best" from="93057739#1" to="-86849761#1"/>
    <trip id="veh178" type="veh_passenger" depart="212.12" departLane="best" departSpeed="max" from="-40864059#5" to="27207213#0"/>
    <trip id="veh179" type="veh_passenger" depart="213.31" departLane="best" from="51270445" to="134024021"/>
    <trip id="veh180" type="veh_passenger" depart="214.51" departLane="best" from="45326122#3" to="-415418914#3"/>
    <trip id="veh181" type="veh_passenger" depart="215.70" departLane="best" from="-91999878#7" to="45786301#0"/>
    <trip id="veh182" type="veh_passenger" depart="216.89" departLane="best" departSpeed="max" from="51270450" to="51270450"/>
    <trip id="veh183" type="veh_passenger" depart="218.08" departLane="best" from="-1059305957#6" to="91375465#18"/>
    <trip id="veh184" type="veh_passenger" depart="219.27" departLane="best" from="27207213#0" to="51271000#0"/>
    <trip id="veh185" type="veh_passenger" depart="220.46" departLane="best" from="51270451" to="51189679"/>
    <trip id="veh186" type="veh_passenger" depart="221.66" departLane="best" from="-86296553#1" to="-310175396"/>
    <trip id="veh187" type="veh_passenger" depart="222.85" departLane="best" from="48162105" to="146587942#4"/>
    <trip id="veh188" type="veh_passenger" depart="224.04" departLane="best" from="-77642916#9" to="56660178#7"/>
    <trip id="veh189" type="veh_passenger" depart="225.23" departLane="best" from="51270418" to="130632678"/>
    <trip id="veh190" type="veh_passenger" depart="226.42" departLane="best" from="-74476994#7" to="253143836#0"/>
    <trip id="veh191" type="veh_passenger" depart="227.61" departLane="best" from="117618466" to="130632678"/>
    <trip id="veh192" type="veh_passenger" depart="228.81" departLane="best" departSpeed="max" from="26175440#0" to="26175440#0"/>
    <trip id="veh193" type="veh_passenger" depart="230.00" departLane="best" from="92409486#0" to="51189679"/>
    <trip id="veh194" type="veh_passenger" depart="231.19" departLane="best" from="-848463704#3" to="485053283"/>
    <trip id="veh195" type="veh_passenger" depart="232.38" departLane="best" departSpeed="max" from="45781461#0" to="45781461#0"/>
    <trip id="veh196" type="veh_passenger" depart="233.57" departLane="best" from="23328570#14" to="-124186701#0"/>
    <trip id="veh197" type="veh_passenger" depart="234.76" departLane="best" from="146587942#2" to="45786301#1"/>
    <trip id="veh198" type="veh_passenger" depart="235.96" departLane="best" departSpeed="max" from="48135948#0" to="27478484#2-AddedOnRampEdge"/>
    <trip id="veh199" type="veh_passenger" depart="237.15" departLane="best" from="146587943#10" to="80397282#0"/>
    <trip id="veh200" type="veh_passenger" depart="238.34" departLane="best" from="163975773" to="85470044#3"/>
    <trip id="veh201" type="veh_passenger" depart="239.53" departLane="best" departSpeed="max" from="51548270#0" to="-521706070#4"/>
    <trip id="veh202" type="veh_passenger" depart="240.72" departLane="best" from="-34922485#18" to="-415418923#2"/>
    <trip id="veh203" type="veh_passenger" depart="241.92" departLane="best" from="45781497#9" to="146587942#5"/>
    <trip id="veh204" type="veh_passenger" depart="243.11" departLane="best" from="521699318" to="51479708"/>
    <trip id="veh205" type="veh_passenger" depart="244.30" departLane="best" from="-485053285#2" to="-831144375#1"/>
    <trip id="veh206" type="veh_passenger" depart="245.49" departLane="best" departSpeed="max" from="-49743607#4" to="-197773382#8"/>
    <trip id="veh207" type="veh_passenger" depart="246.68" departLane="best" departSpeed="max" from="-51826550#6" to="28018709#0"/>
    <trip id="veh208" type="veh_passenger" depart="247.87" departLane="best" from="-559505781#5" to="23363570#0"/>
    <trip id="veh209" type="veh_passenger" depart="249.07" departLane="best" from="134024021" to="-485053287#3"/>
    <trip id="veh210" type="veh_passenger" depart="250.26" departLane="best" departSpeed="max" from="-49743607#4" to="51270435#0"/>
    <trip id="veh211" type="veh_passenger" depart="251.45" departLane="best" from="23328567#0" to="-86127790#2"/>
    <trip id="veh212" type="veh_passenger" depart="252.64" departLane="best" departSpeed="max" from="48135948#0" to="117618466"/>
    <trip id="veh213" type="veh_passenger" depart="253.83" departLane="best" from="-51272618#7" to="51738618"/>
    <trip id="veh214" type="veh_passenger" depart="255.02" departLane="best" departSpeed="max" from="-40864059#5" to="27207208#1"/>
    <trip id="veh215" type="veh_passenger" depart="256.22" departLane="best" from="-485053285#2" to="92409495#5"/>
    <trip id="veh216" type="veh_passenger" depart="257.41" departLane="best" from="26175435#1" to="27207208#1"/>
    <trip id="veh217" type="veh_passenger" depart="258.60" departLane="best" departSpeed="max" from="-51826550#6" to="56660178#7"/>
    <trip id="veh218" type="veh_passenger" depart="259.79" departLane="best" from="-146588153#12" to="519034176#0"/>
    <trip id="veh219" type="veh_passenger" depart="260.98" departLane="best" from="485053283" to="93057745#2"/>
    <trip id="veh220" type="veh_passenger" depart="262.17" departLane="best" from="415418918#5" to="92409495#5"/>
    <trip id="veh221" type="veh_passenger" depart="263.37" departLane="best" departSpeed="max" from="82652591#0" to="48162105"/>
    <trip id="veh222" type="veh_passenger" depart="264.56" departLane="best" from="-51270415#7" to="34922486#0"/>
    <trip id="veh223" type="veh_passenger" depart="265.75" departLane="best" from="-521706070#4" to="45781461#0"/>
    <trip id="veh224" type="veh_passenger" depart="266.94" departLane="best" from="831144375#2" to="51479706"/>
    <trip id="veh225" type="veh_passenger" depart="268.13" departLane="best" from="163975773" to="-86296553#5"/>
    <trip id="veh226" type="veh_passenger" depart="269.32" departLane="best" departSpeed="max" from="-51826550#6" to="485053288#0"/>
    <trip id="veh227" type="veh_passenger" depart="270.52" departLane="best" from="51479704#0" to="44037281#0"/>
    <trip id="veh228" type="veh_passenger" depart="271.71" departLane="best" from="45781497#0" to="-91999878#6"/>
    <trip id="veh229" type="veh_passenger" depart="272.90" departLane="best" from="310175395#0" to="117618466"/>
    <trip id="veh230" type="veh_passenger" depart="274.09" departLane="best" departSpeed="max" from="-51984177" to="146587942#0"/>
    <trip id="veh231" type="veh_passenger" depart="275.28" departLane="best" from="27207213#0" to="51271000#0"/>
    <trip id="veh232" type="veh_passenger" depart="276.47" departLane="best" departSpeed="max" from="-51748691#1" to="51270418"/>
    <trip id="veh233" type="veh_passenger" depart="277.67" departLane="best" from="27207212#1" to="-310175395#1"/>