<?xml version="1.0" encoding="UTF-8"?>

<!-- generated on 2023-07-11 11:58:32 by Eclipse SUMO netedit Version 1.15.0
<configuration xmlns:xsi="http://www.w3.org/2001/XMLSchema-instance" xsi:noNamespaceSchemaLocation="http://sumo.dlr.de/xsd/netconvertConfiguration.xsd">

    <input>
        <sumo-net-file value="C:\Users\User\Documents\Sumo\tools\2023-07-10-16-42-08\../2023-07-11-10-53-40/osm.net.xml.gz"/>
    </input>

    <output>
        <output-file value="C:\Users\User\Documents\Sumo\tools\2023-07-10-16-42-08\../2023-07-11-10-53-40/osm.net.xml.gz"/>
        <output.street-names value="true"/>
    </output>

    <processing>
        <geometry.min-radius.fix.railways value="false"/>
        <geometry.max-grade.fix value="false"/>
        <offset.disable-normalization value="true"/>
        <lefthand value="0"/>
    </processing>

    <junctions>
        <no-internal-links value="false"/>
        <no-turnarounds value="true"/>
        <junctions.corner-detail value="5"/>
        <junctions.limit-turn-speed value="5.50"/>
        <rectangular-lane-cut value="0"/>
    </junctions>

    <pedestrian>
        <walkingareas value="1"/>
    </pedestrian>

</configuration>
-->

<connections version="1.9" xmlns:xsi="http://www.w3.org/2001/XMLSchema-instance" xsi:noNamespaceSchemaLocation="http://sumo.dlr.de/xsd/connections_file.xsd">
    <connection from="-1026459819#1" to="-23328570#13" fromLane="0" toLane="0"/>
    <connection from="-1026459819#1" to="23328570#14" fromLane="0" toLane="0"/>

    <connection from="-1028682511#1" to="-197773391#5" fromLane="0" toLane="0"/>
    <connection from="-1028682511#1" to="485053288#0" fromLane="0" toLane="1"/>
    <connection from="-1028682511#1" to="44037281#0" fromLane="0" toLane="0"/>

    <connection from="-1059305957#6" to="-51818689#10" fromLane="0" toLane="0"/>
    <connection from="-1059305957#6" to="-478638719#6" fromLane="0" toLane="0"/>
    <connection from="-1059305957#6" to="51818689#11" fromLane="0" toLane="0"/>
    <connection from="-1059305957#6" to="1059305957#0" fromLane="0" toLane="0"/>

    <connection from="-117618466" to="92409495#5" fromLane="0" toLane="1"/>
    <connection from="-117618466" to="92409495#5" fromLane="1" toLane="2"/>
    <connection from="-117618466" to="117618466" fromLane="1" toLane="1"/>

    <connection from="-117618489" to="92409495#11" fromLane="0" toLane="1"/>
    <connection from="-117618489" to="92409495#11" fromLane="1" toLane="2"/>
    <connection from="-117618489" to="117618489" fromLane="1" toLane="1"/>

    <connection from="-117618543" to="92409495#12" fromLane="0" toLane="1"/>
    <connection from="-117618543" to="92409495#12" fromLane="1" toLane="2"/>
    <connection from="-117618543" to="117618543" fromLane="1" toLane="1"/>

    <connection from="-124186701#0" to="-309631702#1" fromLane="0" toLane="0"/>
    <connection from="-124186701#0" to="-309631702#1" fromLane="1" toLane="1"/>
    <connection from="-124186701#0" to="45326122#0" fromLane="1" toLane="1"/>
    <connection from="-124186701#0" to="124186701#0" fromLane="1" toLane="1"/>

    <connection from="-127703117#6" to="-848463704#3" fromLane="0" toLane="0"/>
    <connection from="-127703117#6" to="848463704#4" fromLane="0" toLane="0"/>
    <connection from="-127703117#6" to="127703117#0" fromLane="0" toLane="0"/>

    <connection from="-130632678" to="56660178#7" fromLane="0" toLane="0"/>
    <connection from="-130632678" to="-56660178#6" fromLane="0" toLane="0"/>
    <connection from="-130632678" to="130632678" fromLane="0" toLane="0"/>

    <connection from="-134024020#5" to="310175395#2" fromLane="0" toLane="0"/>
    <connection from="-134024020#5" to="-310175395#1" fromLane="0" toLane="1"/>
    <connection from="-134024020#5" to="134024020#0" fromLane="0" toLane="0"/>

    <connection from="-146588039#9" to="-831144375#1" fromLane="0" toLane="0"/>
    <connection from="-146588039#9" to="831144375#2" fromLane="0" toLane="1"/>
    <connection from="-146588039#9" to="146588039#0" fromLane="0" toLane="0"/>

    <connection from="-146588153#12" to="-1059305957#6" fromLane="0" toLane="0"/>
    <connection from="-146588153#12" to="39542408#0" fromLane="0" toLane="0"/>
    <connection from="-146588153#12" to="146588153#0" fromLane="0" toLane="0"/>

    <connection from="-146588339#4" to="146588338#0" fromLane="0" toLane="0"/>
    <connection from="-146588339#4" to="146588338#0" fromLane="0" toLane="1"/>
    <connection from="-146588339#4" to="146588339#0" fromLane="0" toLane="0"/>

    <connection from="-146607495#3" to="34922488#0" fromLane="0" toLane="0"/>
    <connection from="-146607495#3" to="-176437608#18" fromLane="0" toLane="0"/>
    <connection from="-146607495#3" to="146607495#0" fromLane="0" toLane="0"/>

    <connection from="-158634332#4" to="-72107990#7" fromLane="0" toLane="0"/>

    <connection from="-175960788#3" to="848463704#0" fromLane="0" toLane="0"/>
    <connection from="-175960788#3" to="-34922485#18" fromLane="0" toLane="0"/>
    <connection from="-175960788#3" to="28018709#0" fromLane="0" toLane="0"/>

    <connection from="-176437608#18" to="-478638718#2" fromLane="0" toLane="0"/>
    <connection from="-176437608#18" to="478638718#3" fromLane="0" toLane="0"/>
    <connection from="-176437608#18" to="45780952#0" fromLane="0" toLane="0"/>

    <connection from="-197773382#8" to="51738618" fromLane="0" toLane="0"/>
    <connection from="-197773382#8" to="-26175439" fromLane="0" toLane="0"/>
    <connection from="-197773382#8" to="197773382#0" fromLane="0" toLane="0"/>

    <connection from="-197773391#5" to="197773389" fromLane="0" toLane="0"/>
    <connection from="-197773391#5" to="-51738618" fromLane="0" toLane="0"/>
    <connection from="-197773391#5" to="197773391#0" fromLane="0" toLane="0"/>

    <connection from="-197773683#3" to="-48135007" fromLane="0" toLane="0"/>

    <connection from="-207904727#14" to="-559505781#5" fromLane="0" toLane="0"/>
    <connection from="-207904727#14" to="51272618#0" fromLane="0" toLane="1"/>
    <connection from="-207904727#14" to="207904727#0" fromLane="0" toLane="0"/>

    <connection from="-23328567#1" to="27478484#0" fromLane="0" toLane="0"/>
    <connection from="-23328567#1" to="27475288" fromLane="0" toLane="0"/>
    <connection from="-23328567#1" to="27475288" fromLane="1" toLane="1"/>
    <connection from="-23328567#1" to="23328567#0" fromLane="1" toLane="1"/>

    <connection from="-23328568#1" to="485053285#0" fromLane="0" toLane="1"/>
    <connection from="-23328568#1" to="-831144375#5" fromLane="0" toLane="0"/>
    <connection from="-23328568#1" to="-831144375#5" fromLane="1" toLane="1"/>
    <connection from="-23328568#1" to="23328568#0" fromLane="1" toLane="1"/>

    <connection from="-23328569#2" to="485053284" fromLane="0" toLane="0" visibility="9.00"/>

    <connection from="-23328570#13" to="-23328569#2" fromLane="0" toLane="0"/>
    <connection from="-23328570#13" to="-29231523#12" fromLane="0" toLane="0"/>
    <connection from="-23328570#13" to="51270413#0" fromLane="0" toLane="1"/>
    <connection from="-23328570#13" to="23328570#0" fromLane="0" toLane="0"/>

    <connection from="-23328574#5" to="74476999#0" fromLane="0" toLane="0"/>
    <connection from="-23328574#5" to="51270415#0" fromLane="0" toLane="1"/>
    <connection from="-23328574#5" to="-478638718#13" fromLane="0" toLane="0"/>
    <connection from="-23328574#5" to="23328574#0" fromLane="0" toLane="0"/>

    <connection from="-253143836#18" to="-559505745#9" fromLane="0" toLane="0"/>
    <connection from="-253143836#18" to="559505746#0" fromLane="0" toLane="0"/>
    <connection from="-253143836#18" to="253143836#0" fromLane="0" toLane="0"/>

    <connection from="-26175435#0" to="-485053287#23" fromLane="0" toLane="0"/>

    <connection from="-26175435#8" to="-26175435#0" fromLane="0" toLane="0"/>
    <connection from="-26175435#8" to="51826550#0" fromLane="0" toLane="0"/>
    <connection from="-26175435#8" to="26175435#1" fromLane="0" toLane="0"/>

    <connection from="-26175439" to="936697397#0" fromLane="0" toLane="0"/>
    <connection from="-26175439" to="26175439" fromLane="0" toLane="0"/>

    <connection from="-27207208#0" to="310175395#0" fromLane="0" toLane="0"/>
    <connection from="-27207208#0" to="310175395#0" fromLane="0" toLane="1"/>

    <connection from="-27207208#4" to="519034176#0" fromLane="0" toLane="1"/>
    <connection from="-27207208#4" to="-27207208#0" fromLane="0" toLane="0"/>
    <connection from="-27207208#4" to="27207208#1" fromLane="0" toLane="1"/>

    <connection from="-27475283" to="146587942#13" fromLane="0" toLane="1"/>
    <connection from="-27475283" to="27475283" fromLane="0" toLane="0"/>

    <connection from="-27475288" to="23328567#0" fromLane="0" toLane="1"/>
    <connection from="-27475288" to="27478484#0" fromLane="0" toLane="2"/>
    <connection from="-27475288" to="27475288" fromLane="0" toLane="1"/>

    <connection from="-29231523#12" to="51702404#0" fromLane="0" toLane="0"/>
    <connection from="-29231523#12" to="-29231523#4" fromLane="0" toLane="0"/>
    <connection from="-29231523#12" to="29231523#5" fromLane="0" toLane="0"/>

    <connection from="-29231523#4" to="85470044#1" fromLane="0" toLane="0"/>
    <connection from="-29231523#4" to="-39542408#22" fromLane="0" toLane="0"/>
    <connection from="-29231523#4" to="-85470044#0" fromLane="0" toLane="0"/>
    <connection from="-29231523#4" to="29231523#0" fromLane="0" toLane="0"/>

    <connection from="-309631702#1" to="-175960788#3" fromLane="0" toLane="0"/>
    <connection from="-309631702#1" to="-51272618#7" fromLane="0" toLane="0"/>
    <connection from="-309631702#1" to="-51272618#7" fromLane="1" toLane="1"/>
    <connection from="-309631702#1" to="309631702#0" fromLane="1" toLane="1"/>

    <connection from="-310175395#1" to="27207208#0" fromLane="0" toLane="0"/>
    <connection from="-310175395#1" to="27207208#0" fromLane="1" toLane="1"/>

    <connection from="-310175395#2" to="-310175395#1" fromLane="0" toLane="0"/>
    <connection from="-310175395#2" to="-310175395#1" fromLane="1" toLane="1"/>
    <connection from="-310175395#2" to="134024020#0" fromLane="1" toLane="0"/>
    <connection from="-310175395#2" to="310175395#2" fromLane="1" toLane="1"/>

    <connection from="-310175396" to="-310175395#2" fromLane="0" toLane="0"/>
    <connection from="-310175396" to="-310175395#2" fromLane="1" toLane="1"/>
    <connection from="-310175396" to="521699318" fromLane="1" toLane="3"/>
    <connection from="-310175396" to="310175396" fromLane="1" toLane="1"/>

    <connection from="-34922485#18" to="559505747#0" fromLane="0" toLane="0"/>
    <connection from="-34922485#18" to="-559505746#15" fromLane="0" toLane="0"/>
    <connection from="-34922485#18" to="-207904727#14" fromLane="0" toLane="0"/>
    <connection from="-34922485#18" to="34922485#0" fromLane="0" toLane="0"/>

    <connection from="-34922486#8" to="146587942#8" fromLane="0" toLane="0"/>
    <connection from="-34922486#8" to="34922486#0" fromLane="0" toLane="0"/>

    <connection from="-360668426#3" to="127703117#0" fromLane="0" toLane="0"/>
    <connection from="-360668426#3" to="-848463704#3" fromLane="0" toLane="0"/>
    <connection from="-360668426#3" to="848463704#4" fromLane="0" toLane="0"/>

    <connection from="-384953637#2" to="27207213#0" fromLane="0" toLane="0"/>
    <connection from="-384953637#2" to="-27475288" fromLane="0" toLane="0"/>
    <connection from="-384953637#2" to="23363570#0" fromLane="0" toLane="0"/>

    <connection from="-39542408#22" to="146588153#0" fromLane="0" toLane="0"/>
    <connection from="-39542408#22" to="-1059305957#6" fromLane="0" toLane="0"/>
    <connection from="-39542408#22" to="39542408#0" fromLane="0" toLane="0"/>

    <connection from="-40864059#5" to="-485053287#17" fromLane="0" toLane="0"/>
    <connection from="-40864059#5" to="-809043969#5" fromLane="0" toLane="0"/>
    <connection from="-40864059#5" to="485053287#19" fromLane="0" toLane="0"/>
    <connection from="-40864059#5" to="-831125580" fromLane="0" toLane="0"/>

    <connection from="-415418914#3" to="45781461#0" fromLane="0" toLane="0"/>
    <connection from="-415418914#3" to="-415418918#5" fromLane="0" toLane="0"/>
    <connection from="-415418914#3" to="415418914#0" fromLane="0" toLane="0"/>

    <connection from="-415418918#4" to="-415418923#2" fromLane="0" toLane="0"/>
    <connection from="-415418918#4" to="55360071#0" fromLane="0" toLane="0"/>
    <connection from="-415418918#4" to="415418923#3" fromLane="0" toLane="0"/>

    <connection from="-415418918#5" to="-415418918#4" fromLane="0" toLane="0"/>
    <connection from="-415418918#5" to="415418918#5" fromLane="0" toLane="0"/>

    <connection from="-415418923#2" to="-74476994#7" fromLane="0" toLane="1"/>
    <connection from="-415418923#2" to="-26175435#8" fromLane="0" toLane="0"/>
    <connection from="-415418923#2" to="415418923#0" fromLane="0" toLane="0"/>

    <connection from="-415418927" to="-485053287#3" fromLane="0" toLane="0"/>
    <connection from="-415418927" to="-197773683#3" fromLane="0" toLane="0"/>
    <connection from="-415418927" to="485053287#4" fromLane="0" toLane="0"/>
    <connection from="-415418927" to="197773683#4" fromLane="0" toLane="0"/>

    <connection from="-42243993#5" to="193336887" fromLane="0" toLane="0"/>

    <connection from="-433769297#7" to="-559505746#15" fromLane="0" toLane="0"/>
    <connection from="-433769297#7" to="-207904727#14" fromLane="0" toLane="0"/>
    <connection from="-433769297#7" to="34922485#0" fromLane="0" toLane="0"/>
    <connection from="-433769297#7" to="559505747#0" fromLane="0" toLane="0"/>

    <connection from="-45780621#22" to="-521706064#1" fromLane="0" toLane="0"/>
    <connection from="-45780621#22" to="-253143836#18" fromLane="0" toLane="0"/>
    <connection from="-45780621#22" to="77642916#0" fromLane="0" toLane="0"/>
    <connection from="-45780621#22" to="45780621#0" fromLane="0" toLane="0"/>

    <connection from="-45783768#6" to="-485053287#12" fromLane="0" toLane="0"/>
    <connection from="-45783768#6" to="485053287#13" fromLane="0" toLane="0"/>
    <connection from="-45783768#6" to="45783768#0" fromLane="0" toLane="0"/>

    <connection from="-459849643#1" to="809043969#0" fromLane="0" toLane="0"/>
    <connection from="-459849643#1" to="-48135948#9" fromLane="0" toLane="0"/>
    <connection from="-459849643#1" to="459849643#0" fromLane="0" toLane="0"/>

    <connection from="-478638718#11" to="45780952#0" fromLane="0" toLane="0"/>
    <connection from="-478638718#11" to="-478638718#2" fromLane="0" toLane="0"/>
    <connection from="-478638718#11" to="478638718#3" fromLane="0" toLane="0"/>

    <connection from="-478638718#13" to="-146607495#3" fromLane="0" toLane="0"/>
    <connection from="-478638718#13" to="-478638718#11" fromLane="0" toLane="0"/>
    <connection from="-478638718#13" to="478638718#12" fromLane="0" toLane="0"/>

    <connection from="-478638718#2" to="-51270413#7" fromLane="0" toLane="0"/>
    <connection from="-478638718#2" to="51272633#0" fromLane="0" toLane="1"/>
    <connection from="-478638718#2" to="478638718#0" fromLane="0" toLane="0"/>

    <connection from="-478638719#6" to="51270413#5" fromLane="0" toLane="0"/>
    <connection from="-478638719#6" to="-51270413#4" fromLane="0" toLane="1"/>
    <connection from="-478638719#6" to="478638719#0" fromLane="0" toLane="0"/>

    <connection from="-48135007" to="-197773382#8" fromLane="0" toLane="0"/>

    <connection from="-48135948#3" to="48135948#0" fromLane="0" toLane="0"/>

    <connection from="-48135948#9" to="48135949#0" fromLane="0" toLane="0"/>
    <connection from="-48135948#9" to="-48135948#3" fromLane="0" toLane="0"/>
    <connection from="-48135948#9" to="48135948#4" fromLane="0" toLane="0"/>

    <connection from="-48135949#5" to="-48135948#3" fromLane="0" toLane="0"/>
    <connection from="-48135949#5" to="48135948#4" fromLane="0" toLane="0"/>
    <connection from="-48135949#5" to="48135949#0" fromLane="0" toLane="0"/>

    <connection from="-48161586#3" to="91999878#0" fromLane="0" toLane="0"/>
    <connection from="-48161586#3" to="-86127805#1" fromLane="0" toLane="0"/>
    <connection from="-48161586#3" to="48161586#0" fromLane="0" toLane="0"/>

    <connection from="-48162105" to="49743607#0" fromLane="0" toLane="0"/>
    <connection from="-48162105" to="146587942#11" fromLane="0" toLane="1"/>
    <connection from="-48162105" to="48162105" fromLane="0" toLane="0"/>

    <connection from="-485053285#2" to="-831144375#5" fromLane="1" toLane="0"/>
    <connection from="-485053285#2" to="-831144375#5" fromLane="2" toLane="1"/>
    <connection from="-485053285#2" to="23328568#0" fromLane="2" toLane="1"/>
    <connection from="-485053285#2" to="485053285#0" fromLane="2" toLane="2"/>

    <connection from="-485053286#2" to="-95949158" fromLane="0" toLane="0"/>
    <connection from="-485053286#2" to="-95949158" fromLane="1" toLane="1"/>

    <connection from="-485053287#11" to="197773683#4" fromLane="0" toLane="0"/>
    <connection from="-485053287#11" to="-485053287#3" fromLane="0" toLane="0"/>
    <connection from="-485053287#11" to="-197773683#3" fromLane="0" toLane="0"/>
    <connection from="-485053287#11" to="485053287#4" fromLane="0" toLane="0"/>

    <connection from="-485053287#12" to="-485053287#11" fromLane="0" toLane="0"/>
    <connection from="-485053287#12" to="-48135949#5" fromLane="0" toLane="0"/>
    <connection from="-485053287#12" to="485053287#12" fromLane="0" toLane="0"/>

    <connection from="-485053287#17" to="45783768#0" fromLane="0" toLane="0"/>
    <connection from="-485053287#17" to="-485053287#12" fromLane="0" toLane="0"/>
    <connection from="-485053287#17" to="485053287#13" fromLane="0" toLane="0"/>

    <connection from="-485053287#23" to="-831125580" fromLane="0" toLane="0"/>
    <connection from="-485053287#23" to="-485053287#17" fromLane="0" toLane="0"/>
    <connection from="-485053287#23" to="-809043969#5" fromLane="0" toLane="0"/>
    <connection from="-485053287#23" to="485053287#19" fromLane="0" toLane="0"/>

    <connection from="-485053287#3" to="-55353714#4" fromLane="0" toLane="0"/>
    <connection from="-485053287#3" to="-521697218#8" fromLane="0" toLane="1"/>
    <connection from="-485053287#3" to="146587942#0" fromLane="0" toLane="1"/>
    <connection from="-485053287#3" to="485053287#0" fromLane="0" toLane="0"/>

    <connection from="-485067571#1" to="-1026459819#1" fromLane="0" toLane="0"/>

    <connection from="-49397725" to="-77010861#7" fromLane="0" toLane="0"/>

    <connection from="-49397765" to="-1028682511#1" fromLane="0" toLane="0"/>

    <connection from="-49523273#3" to="-77010861#4" fromLane="0" toLane="0"/>
    <connection from="-49523273#3" to="77010861#5" fromLane="0" toLane="0"/>
    <connection from="-49523273#3" to="49523273#0" fromLane="0" toLane="0"/>

    <connection from="-49743607#4" to="146587942#11" fromLane="0" toLane="0"/>
    <connection from="-49743607#4" to="48162105" fromLane="0" toLane="0"/>
    <connection from="-49743607#4" to="49743607#0" fromLane="0" toLane="0"/>

    <connection from="-49743610" to="146587942#5" fromLane="0" toLane="1"/>
    <connection from="-49743610" to="49743610" fromLane="0" toLane="0"/>

    <connection from="-50728064" to="-27207208#4" fromLane="0" toLane="0"/>

    <connection from="-51270413#4" to="23328570#0" fromLane="0" toLane="0"/>
    <connection from="-51270413#4" to="-23328569#2" fromLane="0" toLane="0"/>
    <connection from="-51270413#4" to="-29231523#12" fromLane="1" toLane="0"/>
    <connection from="-51270413#4" to="51270413#0" fromLane="1" toLane="1"/>

    <connection from="-51270413#7" to="-51270413#4" fromLane="0" toLane="0"/>
    <connection from="-51270413#7" to="-51270413#4" fromLane="1" toLane="1"/>
    <connection from="-51270413#7" to="478638719#0" fromLane="1" toLane="0"/>
    <connection from="-51270413#7" to="51270413#5" fromLane="1" toLane="1"/>

    <connection from="-51270415#7" to="-478638718#13" fromLane="0" toLane="0"/>
    <connection from="-51270415#7" to="23328574#0" fromLane="0" toLane="0"/>
    <connection from="-51270415#7" to="74476999#0" fromLane="0" toLane="0"/>
    <connection from="-51270415#7" to="51270415#0" fromLane="0" toLane="1"/>

    <connection from="-51271000#9" to="-741168371#2" fromLane="0" toLane="0"/>
    <connection from="-51271000#9" to="521706070#0" fromLane="1" toLane="0"/>
    <connection from="-51271000#9" to="51271000#0" fromLane="1" toLane="1"/>

    <connection from="-51272618#7" to="207904727#0" fromLane="0" toLane="0"/>
    <connection from="-51272618#7" to="-559505781#5" fromLane="0" toLane="0"/>
    <connection from="-51272618#7" to="-559505781#5" fromLane="1" toLane="1"/>
    <connection from="-51272618#7" to="51272618#0" fromLane="1" toLane="1"/>

    <connection from="-51272633#4" to="478638718#0" fromLane="0" toLane="0"/>
    <connection from="-51272633#4" to="-51270413#7" fromLane="0" toLane="0"/>
    <connection from="-51272633#4" to="-51270413#7" fromLane="1" toLane="1"/>
    <connection from="-51272633#4" to="51272633#0" fromLane="1" toLane="1"/>

    <connection from="-51544009#1" to="-45780621#22" fromLane="0" toLane="0"/>

    <connection from="-51548270#7" to="51548270#0" fromLane="0" toLane="0"/>

    <connection from="-51702404#12" to="-29231523#4" fromLane="0" toLane="0"/>
    <connection from="-51702404#12" to="29231523#5" fromLane="0" toLane="0"/>
    <connection from="-51702404#12" to="51702404#0" fromLane="0" toLane="0"/>

    <connection from="-51738618" to="197773382#0" fromLane="0" toLane="0"/>

    <connection from="-51748691#1" to="45781497#0" fromLane="0" toLane="0"/>
    <connection from="-51748691#1" to="51748691#0" fromLane="0" toLane="0"/>

    <connection from="-51818689#10" to="86296553#2" fromLane="0" toLane="0"/>
    <connection from="-51818689#10" to="-86296553#1" fromLane="0" toLane="1"/>
    <connection from="-51818689#10" to="478638721" fromLane="0" toLane="0"/>

    <connection from="-51818689#18" to="1059305957#0" fromLane="0" toLane="0"/>
    <connection from="-51818689#18" to="-51818689#10" fromLane="0" toLane="0"/>
    <connection from="-51818689#18" to="-478638719#6" fromLane="0" toLane="0"/>
    <connection from="-51818689#18" to="51818689#11" fromLane="0" toLane="0"/>

    <connection from="-51826550#6" to="26175435#1" fromLane="0" toLane="0"/>
    <connection from="-51826550#6" to="-26175435#0" fromLane="0" toLane="0"/>
    <connection from="-51826550#6" to="51826550#0" fromLane="0" toLane="0"/>

    <connection from="-519034176#4" to="-27207208#0" fromLane="1" toLane="0"/>
    <connection from="-519034176#4" to="27207208#1" fromLane="1" toLane="1"/>
    <connection from="-519034176#4" to="519034176#0" fromLane="1" toLane="1"/>

    <connection from="-51984177" to="-51984186#1" fromLane="0" toLane="0"/>

    <connection from="-51984186#1" to="415418923#3" fromLane="0" toLane="0"/>
    <connection from="-51984186#1" to="-415418923#2" fromLane="0" toLane="0"/>
    <connection from="-51984186#1" to="55360071#0" fromLane="0" toLane="0"/>

    <connection from="-521697218#8" to="-51271000#9" fromLane="0" toLane="0"/>
    <connection from="-521697218#8" to="-51271000#9" fromLane="1" toLane="1"/>
    <connection from="-521697218#8" to="26175437#0" fromLane="1" toLane="1"/>
    <connection from="-521697218#8" to="521697218#0" fromLane="1" toLane="1"/>

    <connection from="-521706064#1" to="521697218#0" fromLane="0" toLane="0"/>
    <connection from="-521706064#1" to="-51271000#9" fromLane="0" toLane="1"/>
    <connection from="-521706064#1" to="26175437#0" fromLane="0" toLane="1"/>

    <connection from="-521706070#4" to="51271000#0" fromLane="0" toLane="0"/>
    <connection from="-521706070#4" to="-741168371#2" fromLane="0" toLane="0"/>
    <connection from="-521706070#4" to="521706070#0" fromLane="0" toLane="0"/>

    <connection from="-55353714#4" to="55353714#0" fromLane="0" toLane="0"/>

    <connection from="-55353721" to="146587943#11" fromLane="0" toLane="1"/>
    <connection from="-55353721" to="55353721" fromLane="0" toLane="0"/>

    <connection from="-559505745#2" to="-23328568#1" fromLane="0" toLane="0"/>
    <connection from="-559505745#2" to="-74476999#20" fromLane="0" toLane="0"/>
    <connection from="-559505745#2" to="559505781#0" fromLane="0" toLane="1"/>
    <connection from="-559505745#2" to="26175432#0" fromLane="0" toLane="0"/>

    <connection from="-559505745#9" to="-521706070#4" fromLane="0" toLane="0"/>
    <connection from="-559505745#9" to="-559505745#2" fromLane="0" toLane="0"/>
    <connection from="-559505745#9" to="559505745#3" fromLane="0" toLane="0"/>

    <connection from="-559505746#15" to="253143836#0" fromLane="0" toLane="0"/>
    <connection from="-559505746#15" to="-559505745#9" fromLane="0" toLane="0"/>
    <connection from="-559505746#15" to="559505746#0" fromLane="0" toLane="0"/>

    <connection from="-559505781#5" to="26175432#0" fromLane="0" toLane="0"/>
    <connection from="-559505781#5" to="-23328568#1" fromLane="0" toLane="0"/>
    <connection from="-559505781#5" to="-23328568#1" fromLane="1" toLane="1"/>
    <connection from="-559505781#5" to="559505781#0" fromLane="1" toLane="1"/>

    <connection from="-56660178#6" to="93057739#1" fromLane="0" toLane="0"/>
    <connection from="-56660178#6" to="56660178#0" fromLane="0" toLane="0"/>

    <connection from="-56660178#9" to="-56660178#6" fromLane="0" toLane="0"/>
    <connection from="-56660178#9" to="130632678" fromLane="0" toLane="0"/>
    <connection from="-56660178#9" to="56660178#7" fromLane="0" toLane="0"/>

    <connection from="-72107990#7" to="-72108001#3" fromLane="0" toLane="0"/>

    <connection from="-72107992#2" to="-158634332#4" fromLane="0" toLane="0"/>
    <connection from="-72107992#2" to="-86371390" fromLane="0" toLane="0"/>
    <connection from="-72107992#2" to="-86371390" fromLane="1" toLane="1"/>
    <connection from="-72107992#2" to="72107997#0" fromLane="1" toLane="1"/>

    <connection from="-72108001#3" to="72108001#0" fromLane="0" toLane="0"/>

    <connection from="-741168371#2" to="26175440#0" fromLane="0" toLane="0"/>
    <connection from="-741168371#2" to="-485053285#2" fromLane="0" toLane="2"/>
    <connection from="-741168371#2" to="741168371#0" fromLane="0" toLane="0"/>

    <connection from="-74476994#7" to="-415418927" fromLane="1" toLane="0"/>

    <connection from="-74476999#20" to="51270415#0" fromLane="0" toLane="0"/>
    <connection from="-74476999#20" to="-478638718#13" fromLane="0" toLane="0"/>
    <connection from="-74476999#20" to="23328574#0" fromLane="0" toLane="0"/>
    <connection from="-74476999#20" to="74476999#0" fromLane="0" toLane="0"/>

    <connection from="-75978514#5" to="-77642916#9" fromLane="0" toLane="0"/>
    <connection from="-75978514#5" to="-433769297#7" fromLane="0" toLane="0"/>
    <connection from="-75978514#5" to="75978514#0" fromLane="0" toLane="0"/>

    <connection from="-77010861#4" to="26175439" fromLane="0" toLane="0"/>
    <connection from="-77010861#4" to="936697397#0" fromLane="0" toLane="0"/>

    <connection from="-77010861#7" to="49523273#0" fromLane="0" toLane="0"/>
    <connection from="-77010861#7" to="-77010861#4" fromLane="0" toLane="0"/>
    <connection from="-77010861#7" to="77010861#5" fromLane="0" toLane="0"/>

    <connection from="-77642916#9" to="45780621#0" fromLane="0" toLane="0"/>
    <connection from="-77642916#9" to="-521706064#1" fromLane="0" toLane="0"/>
    <connection from="-77642916#9" to="-253143836#18" fromLane="0" toLane="0"/>
    <connection from="-77642916#9" to="77642916#0" fromLane="0" toLane="0"/>

    <connection from="-80397282#3" to="-485067571#1" fromLane="0" toLane="0"/>
    <connection from="-80397282#3" to="-51270415#7" fromLane="0" toLane="0"/>
    <connection from="-80397282#3" to="80397282#0" fromLane="1" toLane="1"/>

    <connection from="-809043969#5" to="-48135948#9" fromLane="0" toLane="0"/>
    <connection from="-809043969#5" to="459849643#0" fromLane="0" toLane="0"/>
    <connection from="-809043969#5" to="809043969#0" fromLane="0" toLane="0"/>

    <connection from="-831125580" to="-40864059#5" fromLane="0" toLane="0"/>

    <connection from="-831144375#1" to="-415418914#3" fromLane="0" toLane="0"/>
    <connection from="-831144375#1" to="-845110746" fromLane="0" toLane="0"/>
    <connection from="-831144375#1" to="-845110746" fromLane="1" toLane="1"/>
    <connection from="-831144375#1" to="95949167" fromLane="1" toLane="1"/>

    <connection from="-831144375#5" to="146588039#0" fromLane="0" toLane="0"/>
    <connection from="-831144375#5" to="-831144375#1" fromLane="0" toLane="0"/>
    <connection from="-831144375#5" to="-831144375#1" fromLane="1" toLane="1"/>
    <connection from="-831144375#5" to="831144375#2" fromLane="1" toLane="1"/>

    <connection from="-845110746" to="-485053286#2" fromLane="0" toLane="0"/>
    <connection from="-845110746" to="-485053286#2" fromLane="1" toLane="1"/>

    <connection from="-848463704#3" to="-34922485#18" fromLane="0" toLane="0"/>
    <connection from="-848463704#3" to="28018709#0" fromLane="0" toLane="0"/>
    <connection from="-848463704#3" to="848463704#0" fromLane="0" toLane="0"/>

    <connection from="-85470044#0" to="-85470048#1" fromLane="0" toLane="0"/>

    <connection from="-85470044#2" to="-39542408#22" fromLane="0" toLane="0"/>
    <connection from="-85470044#2" to="-85470044#0" fromLane="0" toLane="0"/>