<?xml version="1.0" encoding="UTF-8"?>

<!-- generated on 2023-07-11 11:58:32 by Eclipse SUMO netedit Version 1.15.0
<configuration xmlns:xsi="http://www.w3.org/2001/XMLSchema-instance" xsi:noNamespaceSchemaLocation="http://sumo.dlr.de/xsd/netconvertConfiguration.xsd">

    <input>
        <sumo-net-file value="C:\Users\User\Documents\Sumo\tools\2023-07-10-16-42-08\../2023-07-11-10-53-40/osm.net.xml.gz"/>
    </input>

    <output>
        <output-file value="C:\Users\User\Documents\Sumo\tools\2023-07-10-16-42-08\../2023-07-11-10-53-40/osm.net.xml.gz"/>
        <output.street-names value="true"/>
    </output>

    <processing>
        <geometry.min-radius.fix.railways value="false"/>
        <geometry.max-grade.fix value="false"/>
        <offset.disable-normalization value="true"/>
        <lefthand value="0"/>
    </processing>

    <junctions>
        <no-internal-links value="false"/>
        <no-turnarounds value="true"/>
        <junctions.corner-detail value="5"/>
        <junctions.limit-turn-speed value="5.50"/>
        <rectangular-lane-cut value="0"/>
    </junctions>

    <pedestrian>
        <walkingareas value="1"/>
    </pedestrian>

</configuration>
-->

<nodes version="1.9" xmlns:xsi="http://www.w3.org/2001/XMLSchema-instance" xsi:noNamespaceSchemaLocation="http://sumo.dlr.de/xsd/nodes_file.xsd">
    <location netOffset="-9245636.16,-7327411.49" convBoundary="0.00,0.00,9359.88,12282.96" origBoundary="83.039524,54.791506,83.139044,54.888569" projParameter="+proj=merc +a=6378137 +b=6378137 +lat_ts=0.0 +lon_0=0.0 +x_0=0.0 +y_0=0 +k=1.0 +units=m +nadgrids=@null +wktext +no_defs"/>

    <node id="10083797320" x="2361.04" y="7296.58" type="priority"/>
    <node id="1056825276" x="3890.88" y="7715.31" type="priority"/>
    <node id="1078655161" x="2395.81" y="12282.96" type="dead_end"/>
    <node id="1111750416" x="2419.83" y="7294.95" type="priority"/>
    <node id="1152766245" x="4566.85" y="7185.22" type="priority"/>
    <node id="1324672413" x="2299.52" y="9579.55" type="priority"/>
    <node id="1324672414" x="2326.54" y="9578.08" type="priority"/>
    <node id="1324672475" x="2360.25" y="10437.93" type="priority"/>
    <node id="1324672477" x="2336.62" y="10438.70" type="priority"/>
    <node id="1324673520" x="2345.88" y="10654.96" type="priority"/>
    <node id="1324673521" x="2369.35" y="10652.29" type="priority"/>
    <node id="1412821427" x="7197.50" y="6274.10" type="priority"/>
    <node id="1726424632" x="8916.21" y="8055.75" type="priority"/>
    <node id="1756317090" x="2274.59" y="7251.28" type="priority"/>
    <node id="1775164258" x="4925.48" y="2929.41" type="priority"/>
    <node id="1775164322" x="2803.67" y="7685.58" type="priority"/>
    <node id="1789540191" x="947.58" y="8981.06" type="priority"/>
    <node id="209908088" x="3693.04" y="1677.88" type="priority"/>
    <node id="209908095" x="2513.28" y="2879.76" type="priority"/>
    <node id="209908104" x="1109.37" y="4693.48" type="priority"/>
    <node id="209908105" x="1109.28" y="4779.19" type="priority"/>
    <node id="209908111" x="2277.99" y="7298.67" type="traffic_light" tl="209908111" tlType="actuated"/>
    <node id="2181488322" x="6091.15" y="6802.85" type="priority"/>
    <node id="252609320" x="2430.27" y="12218.92" type="dead_end"/>
    <node id="252613842" x="4429.22" y="7172.53" type="traffic_light" tl="252613842" tlType="actuated"/>
    <node id="252613859" x="3729.76" y="1598.30" type="priority"/>
    <node id="252613862" x="4437.70" y="2250.86" type="traffic_light" tl="252613862" tlType="actuated"/>
    <node id="252613869" x="5072.01" y="2737.94" type="traffic_light" tl="252613869" tlType="actuated"/>
    <node id="252613870" x="4153.30" y="3953.51" type="traffic_light" tl="252613870" tlType="actuated"/>
    <node id="252613876" x="4700.51" y="6816.56" type="traffic_light" tl="252613876" tlType="actuated"/>
    <node id="252613879" x="4562.14" y="4073.31" type="priority"/>
    <node id="252613882" x="6055.23" y="5001.92" type="traffic_light" tl="252613882" tlType="actuated"/>
    <node id="252705264" x="2265.30" y="7171.37" type="priority"/>
    <node id="252705265" x="2273.78" y="7425.33" type="priority"/>
    <node id="252953127" x="2446.56" y="2896.79" type="priority"/>
    <node id="252953130" x="2570.00" y="2855.69" type="priority"/>
    <node id="252966600" x="1080.91" y="4817.30" type="priority"/>
    <node id="252966605" x="1073.83" y="4785.80" type="priority"/>
    <node id="252966618" x="970.25" y="4737.19" type="priority"/>
    <node id="252966638" x="1039.58" y="4742.22" type="priority"/>
    <node id="252966644" x="1074.96" y="4689.94" type="priority"/>
    <node id="252966717" x="2235.54" y="7299.98" type="traffic_light" tl="252966717" tlType="actuated"/>
    <node id="252966743" x="0.00" y="6341.51" type="priority"/>
    <node id="2574378132" x="5072.52" y="8648.28" type="priority"/>
    <node id="27478484#2-AddedOnRampNode" x="2256.53" y="7523.55" type="priority"/>
    <node id="275495398" x="3780.33" y="491.42" type="dead_end"/>
    <node id="275495476" x="2251.55" y="2932.97" type="priority"/>
    <node id="282272147" x="796.75" y="4709.28" type="traffic_light" tl="282272147" tlType="actuated"/>
    <node id="286639339" x="5190.76" y="7188.12" type="priority"/>
    <node id="286639340" x="4766.72" y="7195.24" type="priority"/>
    <node id="286639341" x="4770.54" y="8057.58" type="traffic_light" tl="286639341" tlType="actuated"/>
    <node id="286639342" x="4164.97" y="8996.73" type="traffic_light" tl="286639342" tlType="actuated"/>
    <node id="286639345" x="2845.07" y="9193.24" type="priority"/>
    <node id="286639346" x="2787.44" y="7283.31" type="traffic_light" tl="286639346" tlType="actuated"/>
    <node id="286639347" x="2802.29" y="7641.68" type="priority"/>
    <node id="286639351" x="6209.94" y="7953.99" type="priority"/>
    <node id="286639353" x="5202.84" y="6143.78" type="traffic_light" tl="286639353" tlType="actuated"/>
    <node id="286639355" x="6749.32" y="5918.50" type="priority"/>
    <node id="286639356" x="2838.79" y="8525.39" type="traffic_light" tl="286639356" tlType="actuated"/>
    <node id="286639358" x="5173.45" y="9624.37" type="priority"/>
    <node id="286639371" x="3506.10" y="8080.74" type="priority"/>
    <node id="286639372" x="5609.32" y="3150.74" type="traffic_light" tl="286639372" tlType="actuated"/>
    <node id="286639373" x="5399.13" y="1500.97" type="priority"/>
    <node id="299442836" x="3644.81" y="1744.75" type="priority"/>
    <node id="301509382" x="4593.09" y="4038.92" type="priority"/>
    <node id="301509387" x="4681.13" y="3996.17" type="priority"/>
    <node id="301558643" x="6749.02" y="3043.05" type="priority"/>
    <node id="301558647" x="5979.24" y="2233.13" type="priority"/>
    <node id="301558881" x="4866.50" y="2580.06" type="priority"/>
    <node id="301563184" x="2554.53" y="2816.53" type="priority"/>
    <node id="301564313" x="3403.00" y="7260.93" type="priority"/>
    <node id="301564316" x="3750.12" y="7736.45" type="priority"/>
    <node id="301565537" x="3208.28" y="7888.53" type="priority"/>
    <node id="301565717" x="3179.67" y="7925.83" type="priority"/>
    <node id="301565816" x="3481.68" y="8115.77" type="priority"/>
    <node id="301566011" x="3972.56" y="8382.02" type="priority"/>
    <node id="301568023" x="5523.53" y="9422.62" type="priority"/>
    <node id="301568024" x="5171.75" y="9195.09" type="priority"/>
    <node id="301681308" x="5186.32" y="9173.08" type="priority"/>
    <node id="301681312" x="4590.79" y="8792.45" type="priority"/>
    <node id="301681321" x="6170.65" y="8399.62" type="priority"/>
    <node id="302732269" x="626.78" y="4679.00" type="priority"/>
    <node id="302732279" x="961.54" y="5564.87" type="priority"/>
    <node id="307660489" x="5215.63" y="9602.42" type="priority"/>
    <node id="307660491" x="5220.57" y="9656.88" type="priority"/>
    <node id="307660511" x="6738.91" y="10608.44" type="priority"/>
    <node id="307660522" x="7205.53" y="10515.22" type="priority"/>
    <node id="307660530" x="7734.08" y="10767.86" type="priority"/>
    <node id="307664621" x="5867.02" y="5253.93" type="priority"/>
    <node id="3155583469" x="1068.72" y="4743.15" type="traffic_light" tl="joinedS_3155583469_3155583470" tlType="actuated" controlledInner="-310175396 310175396"/>
    <node id="3155583470" x="1106.78" y="4746.18" type="traffic_light" tl="joinedS_3155583469_3155583470" tlType="actuated" controlledInner="-310175396 310175396"/>
    <node id="3652281547" x="9359.88" y="7028.31" type="priority"/>
    <node id="372812402" x="3595.40" y="1712.67" type="priority"/>
    <node id="372812405" x="3675.71" y="1570.99" type="priority"/>
    <node id="409751358" x="5604.69" y="7491.69" type="priority"/>
    <node id="409751363" x="4829.02" y="8942.72" type="priority"/>
    <node id="409751372" x="4154.64" y="3658.02" type="priority"/>
    <node id="409751373" x="4231.58" y="3836.26" type="priority"/>
    <node id="417293541" x="6274.82" y="3659.45" type="traffic_light" tl="417293541" tlType="actuated"/>
    <node id="417761118" x="7340.42" y="5009.52" type="priority"/>
    <node id="417761170" x="6281.75" y="4529.49" type="priority"/>
    <node id="4474469176" x="6175.45" y="10744.97" type="priority"/>
    <node id="473595366" x="5570.34" y="3120.84" type="priority"/>
    <node id="473745232" x="5840.48" y="3327.48" type="priority"/>
    <node id="4843018830" x="516.98" y="4270.04" type="priority"/>
    <node id="497237227" x="3220.93" y="9530.72" type="priority"/>
    <node id="497400626" x="5565.16" y="4064.42" type="priority"/>
    <node id="559877606" x="8866.15" y="9624.94" type="priority"/>
    <node id="5641020197" x="693.71" y="8742.58" type="priority"/>
    <node id="575932021" x="6029.11" y="5036.70" type="traffic_light" tl="575932021" tlType="actuated"/>
    <node id="582978893" x="7389.20" y="8009.94" type="priority"/>
    <node id="582983592" x="3656.48" y="3273.10" type="priority"/>
    <node id="583005227" x="3218.44" y="8965.78" type="priority"/>
    <node id="583005259" x="3480.30" y="8916.08" type="priority"/>
    <node id="583005339" x="3472.07" y="9204.09" type="priority"/>
    <node id="583022047" x="5801.46" y="4865.61" type="priority"/>
    <node id="583022048" x="5828.07" y="4831.20" type="priority"/>
    <node id="611759393" x="3117.87" y="8519.53" type="priority"/>
    <node id="611759424" x="4495.94" y="9204.38" type="priority"/>
    <node id="611766945" x="3853.85" y="9543.24" type="priority"/>
    <node id="611766946" x="3608.74" y="9538.46" type="priority"/>
    <node id="611766948" x="3609.53" y="9205.91" type="priority"/>
    <node id="612011985" x="3859.77" y="7684.36" type="priority"/>
    <node id="612016562" x="4957.19" y="9057.34" type="priority"/>
    <node id="612016565" x="4973.40" y="9034.98" type="priority"/>
    <node id="612016601" x="4448.00" y="9174.24" type="priority"/>
    <node id="612410720" x="2278.10" y="8868.09" type="priority"/>
    <node id="612410773" x="1169.40" y="8898.46" type="priority"/>
    <node id="612410967" x="2266.49" y="8092.96" type="priority"/>
    <node id="627281410" x="7237.11" y="10521.61" type="priority"/>
    <node id="632206648" x="4643.11" y="8825.16" type="priority"/>
    <node id="632206653" x="4628.29" y="8846.17" type="priority"/>
    <node id="632206656" x="4886.00" y="8564.95" type="priority"/>
    <node id="635921232" x="2241.40" y="8094.32" type="priority"/>
    <node id="637554918" x="3383.70" y="3630.45" type="traffic_light" tl="637554918" tlType="actuated"/>
    <node id="6510928852" x="7103.39" y="9725.90" type="priority"/>
    <node id="652468808" x="4633.12" y="4065.67" type="priority"/>
    <node id="652618036" x="2295.44" y="8792.90" type="priority"/>
    <node id="653112171" x="2033.82" y="2959.24" type="priority"/>
    <node id="653112173" x="2048.45" y="2998.36" type="priority"/>
    <node id="653112180" x="3762.90" y="0.00" type="dead_end"/>
    <node id="654169668" x="2434.89" y="2858.55" type="priority"/>
    <node id="655415608" x="2832.32" y="8398.50" type="priority"/>
    <node id="656171611" x="5757.08" y="3678.41" type="priority"/>
    <node id="659035924" x="5243.57" y="3510.99" type="priority"/>
    <node id="659956027" x="5349.56" y="1162.85" type="priority"/>
    <node id="659956028" x="5211.32" y="1577.12" type="priority"/>
    <node id="660466804" x="5502.86" y="2296.76" type="priority"/>
    <node id="660466838" x="5310.92" y="4470.14" type="priority"/>
    <node id="661137657" x="2625.51" y="9509.40" type="priority"/>
    <node id="661137696" x="2837.10" y="9189.91" type="priority"/>
    <node id="662882662" x="2516.84" y="8407.84" type="priority"/>
    <node id="662882781" x="2522.67" y="8580.75" type="priority"/>
    <node id="662892800" x="2170.56" y="2923.11" type="priority"/>
    <node id="662892802" x="2180.72" y="2961.04" type="priority"/>
    <node id="663287547" x="7589.46" y="3993.35" type="priority"/>
    <node id="663287570" x="6703.54" y="4543.31" type="priority"/>
    <node id="663933052" x="3739.81" y="8236.25" type="priority"/>
    <node id="669508597" x="318.08" y="3363.63" type="priority"/>
    <node id="6755413940" x="2896.89" y="9530.66" type="priority"/>
    <node id="695285202" x="4494.97" y="8729.99" type="priority"/>
    <node id="703049772" x="5329.60" y="1008.79" type="priority"/>
    <node id="708613488" x="2260.22" y="8551.76" type="priority"/>
    <node id="725100023" x="6904.20" y="2838.72" type="priority"/>
    <node id="7264965873" x="5347.27" y="4479.86" type="priority"/>
    <node id="7264965877" x="5331.59" y="4503.95" type="priority"/>
    <node id="7884436622" x="2684.20" y="7287.49" type="priority"/>
    <node id="896786767" x="6705.69" y="7266.76" type="priority"/>
    <node id="896786786" x="6919.61" y="6906.01" type="priority"/>
    <node id="932526300" x="4480.74" y="8751.44" type="priority"/>
    <node id="932526301" x="4178.14" y="8541.29" type="priority"/>
    <node id="9463655438" x="3626.73" y="3311.55" type="priority"/>
    <node id="990897676" x="5412.09" y="1601.76" type="priority"/>
    <node id="990897688" x="5436.06" y="1788.39" type="priority"/>
    <node id="cluster_301566721_301568025_307659140" x="4372.78" y="8666.05" type="traffic_light" tl="cluster_301566721_301568025_307659140" tlType="actuated">
        <param key="origEdgeIds" value="-485053281#0 -485053281#1 485053281#0 485053281#1"/>
        <param key="origId" value="301566721 301568025 307659140"/>
    </node>
    <node id="cluster_7565019525_7760354791" x="3222.28" y="9200.80" type="priority">
        <param key="origEdgeIds" value="-485053287#18 485053287#18"/>
        <param key="origId" value="7565019525 7760354791"/>
    </node>
</nodes>
