<?xml version="1.0" encoding="UTF-8"?>

<!-- generated on 2023-07-12 12:37:16 by Eclipse SUMO netedit Version 1.15.0
<configuration xmlns:xsi="http://www.w3.org/2001/XMLSchema-instance" xsi:noNamespaceSchemaLocation="http://sumo.dlr.de/xsd/netconvertConfiguration.xsd">

    <input>
        <sumo-net-file value="C:\Users\User\Documents\Sumo\tools\2023-07-10-16-42-08\pop.net.xml"/>
    </input>

    <output>
        <output-file value="C:\Users\User\Documents\GitHub\akadem_streets\2023-07-10-16-42-08\pop.net.xml"/>
        <output.street-names value="true"/>
    </output>

    <processing>
        <geometry.min-radius.fix.railways value="false"/>
        <geometry.max-grade.fix value="false"/>
        <offset.disable-normalization value="true"/>
        <lefthand value="0"/>
    </processing>

    <junctions>
        <no-internal-links value="false"/>
        <no-turnarounds value="true"/>
        <junctions.corner-detail value="5"/>
        <junctions.limit-turn-speed value="5.50"/>
        <rectangular-lane-cut value="0"/>
    </junctions>

    <pedestrian>
        <walkingareas value="1"/>
    </pedestrian>

    <netedit>
        <SUMOConfig-output value="C:\Users\User\Documents\GitHub\akadem_streets\2023-07-10-16-42-08\1232142.sumocfg"/>
        <additional-files value="C:\Users\User\Documents\Sumo\tools\2023-07-10-16-42-08\../2023-07-11-10-53-40/osm.poly.xml.gz"/>
        <route-files value="C:\Users\User\Documents\Sumo\tools\2023-07-10-16-42-08\../2023-07-11-10-53-40/osm.passenger.trips.xml"/>
    </netedit>

</configuration>
-->

<edges version="1.9" xmlns:xsi="http://www.w3.org/2001/XMLSchema-instance" xsi:noNamespaceSchemaLocation="http://sumo.dlr.de/xsd/edges_file.xsd">
    <edge id="-1026459819#1" from="9463655438" to="582983592" name="Жемчужная улица" priority="10" type="highway.tertiary" numLanes="1" speed="13.89" shape="3626.73,3311.55 3635.30,3301.19 3645.86,3287.39 3656.48,3273.10" disallow="pedestrian tram rail_urban rail rail_electric rail_fast ship">
        <lane index="0">
            <param key="origId" value="1026459819 23328570"/>
        </lane>
    </edge>
    <edge id="-1028682511#1" from="6510928852" to="301568023" name="улица Арбузова" priority="10" type="highway.tertiary" numLanes="1" speed="13.89" shape="7103.39,9725.90 6979.09,9736.54 6934.55,9739.08 6867.46,9742.89 6806.41,9748.91 6682.44,9757.96 6601.86,9766.26 6592.66,9766.98 6518.38,9772.82 6416.07,9780.85 6315.12,9788.76 6241.19,9794.58 6176.29,9801.76 6141.34,9805.57 6106.89,9804.18 6080.30,9786.81 6060.93,9773.23 6013.52,9742.48 5975.64,9718.20 5957.56,9706.96 5932.42,9690.09 5910.04,9675.35 5882.82,9658.98 5859.61,9644.71 5766.94,9587.67 5755.76,9578.23 5683.17,9531.73 5675.77,9526.70 5604.44,9481.70 5547.25,9438.11 5523.53,9422.62" disallow="pedestrian tram rail_urban rail rail_electric rail_fast ship">
        <lane index="0">
            <param key="origId" value="1028682511 307140306 307140306 307140306 44037281 44037281"/>
        </lane>
    </edge>
    <edge id="-1059305957#6" from="301558647" to="660466804" name="улица Учёных" priority="3" type="highway.residential" numLanes="1" speed="13.89" shape="5979.24,2233.13 5965.34,2234.99 5920.87,2240.92 5908.47,2242.59 5889.25,2244.92 5773.65,2260.60 5724.47,2267.17 5520.95,2294.35 5502.86,2296.76" disallow="pedestrian tram rail_urban rail rail_electric rail_fast ship">
        <lane index="0">
            <param key="origId" value="1059305957"/>
        </lane>
    </edge>
    <edge id="-117618466" from="1324672413" to="1324672414" priority="13" type="highway.trunk" numLanes="2" speed="13.89" disallow="pedestrian bicycle tram rail_urban rail rail_electric rail_fast ship">
        <lane index="0">
            <param key="origId" value="117618466"/>
        </lane>
        <lane index="1">
            <param key="origId" value="117618466"/>
        </lane>
    </edge>
    <edge id="-117618489" from="1324672477" to="1324672475" priority="13" type="highway.trunk" numLanes="2" speed="13.89" disallow="pedestrian bicycle tram rail_urban rail rail_electric rail_fast ship">
        <lane index="0">
            <param key="origId" value="117618489"/>
        </lane>
        <lane index="1">
            <param key="origId" value="117618489"/>
        </lane>
    </edge>
    <edge id="-117618543" from="1324673520" to="1324673521" priority="13" type="highway.trunk" numLanes="2" speed="13.89" disallow="pedestrian bicycle tram rail_urban rail rail_electric rail_fast ship">
        <lane index="0">
            <param key="origId" value="117618543"/>
        </lane>
        <lane index="1">
            <param key="origId" value="117618543"/>
        </lane>
    </edge>
    <edge id="-124186701#0" from="252613882" to="575932021" name="проспект Академика Лаврентьева" priority="11" type="highway.secondary" numLanes="2" speed="13.89" disallow="pedestrian tram rail_urban rail rail_electric rail_fast ship">
        <lane index="0">
            <param key="origId" value="124186701"/>
        </lane>
        <lane index="1">
            <param key="origId" value="124186701"/>
        </lane>
    </edge>
    <edge id="-127703117#6" from="896786786" to="1412821427" priority="4" type="highway.unclassified" numLanes="1" speed="13.89" shape="6919.61,6906.01 6904.88,6893.51 6886.70,6878.08 6876.29,6866.46 6869.58,6858.96 6869.57,6830.45 6880.19,6816.14 6888.68,6804.67 6933.38,6753.85 6967.08,6706.27 6986.89,6671.48 7012.32,6658.33 7026.39,6648.55 7043.35,6624.47 7075.04,6582.64 7114.33,6524.24 7124.84,6504.84 7123.91,6490.18 7097.23,6466.16 7092.64,6446.09 7094.67,6429.98 7184.70,6302.74 7197.50,6274.10" disallow="pedestrian tram rail_urban rail rail_electric rail_fast ship">
        <lane index="0">
            <param key="origId" value="127703117"/>
        </lane>
    </edge>
    <edge id="-130632678" from="1789540191" to="612410773" priority="4" type="highway.unclassified" numLanes="1" speed="13.89" shape="947.58,8981.06 971.44,8993.02 1046.84,8963.77 1060.60,8957.94 1081.10,8926.32 1169.40,8898.46" disallow="pedestrian tram rail_urban rail rail_electric rail_fast ship">
        <lane index="0">
            <param key="origId" value="130632678"/>
        </lane>
    </edge>
    <edge id="-134024020#5" from="669508597" to="252966638" name="Бердский тупик" priority="4" type="highway.unclassified" numLanes="1" speed="13.89" shape="318.08,3363.63 364.17,3453.21 425.12,3571.65 428.60,3578.41 655.62,4007.50 708.40,4107.28 841.74,4352.84 991.44,4632.52 1012.52,4673.80 1039.58,4742.22" disallow="pedestrian tram rail_urban rail rail_electric rail_fast ship">
        <lane index="0">
            <param key="origId" value="134024020"/>
        </lane>
    </edge>
    <edge id="-146588039#9" from="301564316" to="301564313" name="улица Лыкова" priority="4" type="highway.unclassified" numLanes="1" speed="13.89" shape="3750.12,7736.45 3737.99,7727.69 3716.39,7712.10 3671.70,7679.82 3564.80,7602.61 3547.44,7593.09 3421.99,7594.93 3419.60,7544.99 3417.94,7510.31 3414.85,7445.91 3403.25,7288.36 3403.00,7260.93" disallow="pedestrian tram rail_urban rail rail_electric rail_fast ship">
        <lane index="0">
            <param key="origId" value="146588039"/>
        </lane>
    </edge>
    <edge id="-146588153#12" from="301558643" to="301558647" name="Академическая улица" priority="3" type="highway.residential" numLanes="1" speed="13.89" shape="6749.02,3043.05 6738.47,3035.67 6580.61,2917.89 6456.61,2820.45 6383.02,2762.66 6321.68,2714.49 6267.87,2672.24 6196.99,2616.59 6171.10,2595.79 6164.80,2591.00 6151.90,2581.22 6034.48,2489.47 6024.68,2477.08 6014.78,2454.89 6008.60,2438.23 6005.23,2422.40 5981.70,2251.57 5979.24,2233.13" disallow="pedestrian tram rail_urban rail rail_electric rail_fast ship">
        <lane index="0">
            <param key="origId" value="146588153"/>
        </lane>
    </edge>
    <edge id="-146588339#4" from="473745232" to="656171611" name="Детский проезд" priority="2" type="highway.living_street" numLanes="1" speed="2.78" shape="5840.48,3327.48 5820.40,3351.74 5773.18,3415.78 5760.62,3433.76 5756.33,3441.26 5754.36,3446.58 5753.26,3453.61 5752.64,3459.88 5754.09,3521.64 5754.23,3527.48 5757.08,3678.41" disallow="tram rail_urban rail rail_electric rail_fast ship">
        <lane index="0">
            <param key="origId" value="146588339"/>
        </lane>
    </edge>
    <edge id="-146607495#3" from="409751373" to="409751372" name="Весенний проезд" priority="3" type="highway.residential" numLanes="1" speed="13.89" shape="4231.58,3836.26 4224.08,3818.88 4217.24,3800.03 4194.43,3753.32 4161.67,3677.47 4154.64,3658.02" disallow="pedestrian tram rail_urban rail rail_electric rail_fast ship">
        <lane index="0">
            <param key="origId" value="146607495"/>
        </lane>
    </edge>
    <edge id="-158634332#4" from="417761170" to="663287570" name="улица Академика Ржанова" priority="10" type="highway.tertiary" numLanes="1" speed="13.89" shape="6281.75,4529.49 6297.27,4528.89 6310.00,4528.18 6465.24,4527.87 6557.26,4528.39 6664.44,4530.28 6679.98,4533.47 6703.54,4543.31" disallow="pedestrian tram rail_urban rail rail_electric rail_fast ship">
        <lane index="0">
            <param key="origId" value="158634332"/>
        </lane>
    </edge>
    <edge id="-175960788#3" from="307664621" to="286639355" name="улица Академика Будкера" priority="4" type="highway.unclassified" numLanes="1" speed="13.89" shape="5867.02,5253.93 5888.99,5270.04 6232.91,5528.29 6257.61,5546.81 6493.19,5720.84 6634.70,5826.94 6749.32,5918.50" disallow="pedestrian tram rail_urban rail rail_electric rail_fast ship">
        <lane index="0">
            <param key="origId" value="175960788 175960788 175960788 175960788 28018709 28018709"/>
        </lane>
    </edge>
    <edge id="-176437608#18" from="409751372" to="1775164258" name="Цветной проезд" priority="3" type="highway.residential" numLanes="1" speed="8.33" shape="4154.64,3658.02 4159.16,3652.12 4204.55,3592.82 4237.73,3549.48 4256.16,3524.44 4278.43,3496.30 4281.01,3492.93 4304.98,3461.62 4311.50,3453.09 4315.65,3447.47 4376.64,3368.00 4449.57,3272.54 4514.01,3188.53 4531.57,3167.38 4554.76,3135.93 4581.65,3100.15 4600.98,3075.01 4615.15,3056.39 4676.68,2976.06 4686.98,2962.55 4774.79,2849.51 4780.92,2844.13 4790.18,2841.45 4799.73,2842.64 4813.47,2847.73 4895.64,2907.96 4901.29,2911.71 4912.01,2919.56 4925.48,2929.41" disallow="pedestrian tram rail_urban rail rail_electric rail_fast ship">
        <lane index="0">
            <param key="origId" value="176437608 176437608 176437608 45780952"/>
        </lane>
    </edge>
    <edge id="-197773382#8" from="611759424" to="286639358" name="улица Иванова" priority="10" type="highway.tertiary" numLanes="1" speed="16.67" shape="4495.94,9204.38 4559.40,9244.04 4595.59,9266.79 4663.05,9309.02 4672.21,9314.76 4854.03,9430.39 4902.67,9460.84 5116.46,9585.62 5125.97,9592.09 5173.45,9624.37" disallow="pedestrian tram rail_urban rail rail_electric rail_fast ship">
        <lane index="0">
            <param key="origId" value="197773382"/>
        </lane>
    </edge>
    <edge id="-197773391#5" from="301568023" to="307660489" priority="6" type="highway.secondary_link" numLanes="1" speed="13.89" shape="5523.53,9422.62 5499.05,9432.85 5434.15,9473.13 5381.82,9505.59 5343.35,9528.24 5263.85,9575.89 5222.45,9598.39 5215.63,9602.42" disallow="pedestrian tram rail_urban rail rail_electric rail_fast ship">
        <lane index="0">
            <param key="origId" value="197773391"/>
        </lane>
    </edge>
    <edge id="-197773683#3" from="286639342" to="612016601" name="улица Иванова" priority="10" type="highway.tertiary" numLanes="1" speed="13.89" shape="4164.97,8996.73 4185.60,9009.87 4248.61,9050.32 4328.66,9100.28 4448.00,9174.24" disallow="pedestrian tram rail_urban rail rail_electric rail_fast ship">
        <lane index="0">
            <param key="origId" value="197773683"/>
        </lane>
    </edge>
    <edge id="-207904727#14" from="2181488322" to="286639353" name="улица Николаева" priority="4" type="highway.unclassified" numLanes="1" speed="13.89" shape="6091.15,6802.85 6084.18,6797.69 6053.53,6774.95 6009.84,6742.17 6001.70,6736.48 5991.76,6728.67 5941.01,6691.56 5920.81,6676.80 5880.71,6646.71 5784.52,6575.35 5757.98,6557.96 5746.30,6550.32 5648.48,6474.42 5633.60,6463.38 5415.88,6301.85 5402.26,6291.73 5281.98,6202.49 5227.79,6162.29 5202.84,6143.78" disallow="pedestrian tram rail_urban rail rail_electric rail_fast ship">
        <lane index="0">
            <param key="origId" value="207904727"/>
        </lane>
    </edge>
    <edge id="-23328567#1" from="10083797320" to="209908111" name="проспект Строителей" priority="11" type="highway.secondary" numLanes="2" speed="13.89" shape="2361.04,7296.58 2311.01,7297.89 2277.99,7298.67" disallow="pedestrian tram rail_urban rail rail_electric rail_fast ship">
        <lane index="0">
            <param key="origId" value="23328567"/>
        </lane>
        <lane index="1">
            <param key="origId" value="23328567"/>
        </lane>
    </edge>
    <edge id="-23328568#1" from="252613876" to="252613842" name="проспект Академика Лаврентьева" priority="11" type="highway.secondary" numLanes="2" speed="13.89" shape="4700.51,6816.56 4691.91,6828.01 4452.53,7146.07 4429.22,7172.53" disallow="pedestrian tram rail_urban rail rail_electric rail_fast ship">
        <lane index="0">
            <param key="origId" value="23328568"/>
        </lane>
        <lane index="1">
            <param key="origId" value="23328568"/>
        </lane>
    </edge>
    <edge id="-23328569#2" from="252613862" to="209908088" name="Морской проспект" priority="11" type="highway.secondary" numLanes="1" speed="16.67" shape="4437.70,2250.86 4422.01,2238.64 4075.37,1969.47 3931.99,1862.53 3870.39,1816.57 3693.04,1677.88" disallow="pedestrian tram rail_urban rail rail_electric rail_fast ship">
        <lane index="0">
            <param key="origId" value="23328569"/>
        </lane>
    </edge>
    <edge id="-23328570#13" from="582983592" to="252613862" name="Жемчужная улица" priority="10" type="highway.tertiary" numLanes="1" speed="13.89" shape="3656.48,3273.10 3687.96,3230.96 3772.15,3120.80 3838.10,3034.51 3906.15,2945.48 3987.75,2838.72 4048.61,2759.08 4076.34,2723.40 4125.90,2657.97 4149.01,2627.72 4229.18,2522.83 4319.40,2404.81 4356.79,2355.89 4391.09,2311.01 4418.18,2275.56 4437.70,2250.86" disallow="pedestrian tram rail_urban rail rail_electric rail_fast ship">
        <lane index="0">
            <param key="origId" value="23328570"/>
        </lane>
    </edge>
    <edge id="-23328574#5" from="252613879" to="252613870" name="Университетский проспект" priority="11" type="highway.secondary" numLanes="1" speed="11.11" shape="4562.14,4073.31 4396.21,4023.43 4363.03,4014.23 4349.83,4010.42 4224.53,3974.21 4173.50,3959.09 4153.30,3953.51" disallow="pedestrian tram rail_urban rail rail_electric rail_fast ship">
        <lane index="0">
            <param key="origId" value="23328574"/>
        </lane>
    </edge>
    <edge id="-253143836#18" from="286639351" to="409751358" name="улица Кутателадзе" priority="10" type="highway.tertiary" numLanes="1" speed="13.89" shape="6209.94,7953.99 6181.47,7932.44 6134.13,7897.93 6116.91,7884.09 6100.29,7871.59 6024.58,7814.69 6008.07,7802.29 5896.64,7716.95 5834.89,7670.30 5828.12,7665.02 5812.37,7652.74 5795.13,7639.30 5791.39,7636.30 5768.16,7618.29 5750.40,7604.45 5740.77,7596.92 5726.33,7585.67 5716.00,7577.62 5624.60,7506.37 5618.62,7501.71 5604.69,7491.69" disallow="pedestrian tram rail_urban rail rail_electric rail_fast ship">
        <lane index="0">
            <param key="origId" value="253143836"/>
        </lane>
    </edge>
    <edge id="-26175435#0" from="661137696" to="286639345" name="улица Героев Труда" priority="11" type="highway.secondary" numLanes="1" speed="16.67" disallow="pedestrian tram rail_urban rail rail_electric rail_fast ship">
        <lane index="0">
            <param key="origId" value="26175435"/>
        </lane>
    </edge>
    <edge id="-26175435#8" from="286639356" to="661137696" name="улица Героев Труда" priority="11" type="highway.secondary" numLanes="1" speed="16.67" shape="2838.79,8525.39 2840.08,8561.84 2840.53,8574.53 2841.19,8593.17 2834.74,8757.15 2833.65,8812.80 2829.83,8996.11 2826.47,9169.31 2826.62,9171.96 2827.06,9179.17 2831.26,9184.57 2837.10,9189.91" disallow="pedestrian tram rail_urban rail rail_electric rail_fast ship">
        <lane index="0">
            <param key="origId" value="26175435"/>
        </lane>
    </edge>
    <edge id="-26175439" from="286639358" to="307660491" name="улица Иванова" priority="11" type="highway.secondary" numLanes="1" speed="16.67" disallow="pedestrian tram rail_urban rail rail_electric rail_fast ship">
        <lane index="0">
            <param key="origId" value="26175439"/>
        </lane>
    </edge>
    <edge id="-27207208#0" from="282272147" to="252966618" name="Русская улица" priority="13" type="highway.trunk" numLanes="1" speed="13.89" shape="796.75,4709.28 930.82,4731.65 970.25,4737.19" disallow="pedestrian bicycle tram rail_urban rail rail_electric rail_fast ship">
        <lane index="0">
            <param key="origId" value="27207208"/>
        </lane>
    </edge>
    <edge id="-27207208#4" from="302732269" to="282272147" name="Русская улица" priority="13" type="highway.trunk" numLanes="1" speed="13.89" shape="626.78,4679.00 680.94,4688.63 746.09,4700.30 763.72,4703.40 786.10,4707.38 796.75,4709.28" disallow="pedestrian bicycle tram rail_urban rail rail_electric rail_fast ship">
        <lane index="0">
            <param key="origId" value="27207208"/>
        </lane>
    </edge>
    <edge id="-27475283" from="301568024" to="301681308" priority="6" type="highway.secondary_link" numLanes="1" speed="13.89" disallow="pedestrian tram rail_urban rail rail_electric rail_fast ship">
        <lane index="0">
            <param key="origId" value="27475283"/>
        </lane>
    </edge>
    <edge id="-27475288" from="252966717" to="209908111" priority="11" type="highway.secondary" numLanes="1" speed="13.89" disallow="pedestrian tram rail_urban rail rail_electric rail_fast ship">
        <lane index="0">
            <param key="origId" value="27475288"/>
        </lane>
    </edge>
    <edge id="-29231523#12" from="252613862" to="659956028" name="улица Мальцева" priority="3" type="highway.residential" numLanes="1" speed="13.89" shape="4437.70,2250.86 4450.54,2235.47 4503.39,2170.09 4524.29,2150.39 4564.00,2116.05 4658.35,2051.55 4674.17,2046.49 4694.48,2042.60 4726.73,2039.32 4801.17,2037.36 4825.56,2035.72 4850.94,2032.75 4890.64,2023.49 4944.39,2005.28 4972.16,1991.23 4989.48,1981.99 5010.38,1963.48 5095.47,1866.43 5126.23,1830.89 5150.71,1802.83 5167.44,1779.25 5170.38,1773.98 5180.58,1755.65 5188.63,1741.02 5196.39,1716.25 5200.88,1691.47 5205.05,1655.04 5211.32,1577.12" disallow="pedestrian tram rail_urban rail rail_electric rail_fast ship">
        <lane index="0">
            <param key="origId" value="29231523"/>
        </lane>
    </edge>
    <edge id="-29231523#4" from="659956028" to="286639373" name="улица Мальцева" priority="3" type="highway.residential" numLanes="1" speed="13.89" shape="5211.32,1577.12 5211.88,1571.76 5212.97,1561.29 5216.40,1545.46 5222.97,1530.23 5231.04,1519.77 5239.69,1511.12 5245.60,1507.23 5252.83,1502.46 5268.35,1497.68 5289.56,1495.29 5335.83,1497.68 5377.93,1499.77 5399.13,1500.97" disallow="pedestrian tram rail_urban rail rail_electric rail_fast ship">
        <lane index="0">
            <param key="origId" value="29231523"/>
        </lane>
    </edge>
    <edge id="-309631702#1" from="575932021" to="307664621" name="проспект Академика Лаврентьева" priority="11" type="highway.secondary" numLanes="2" speed="13.89" shape="6029.11,5036.70 6012.66,5057.24 5974.44,5110.35 5867.02,5253.93" disallow="pedestrian tram rail_urban rail rail_electric rail_fast ship">
        <lane index="0">
            <param key="origId" value="309631702"/>
        </lane>
        <lane index="1">
            <param key="origId" value="309631702"/>
        </lane>
    </edge>
    <edge id="-310175395#1" from="252966638" to="252966618" priority="13" type="highway.trunk" numLanes="2" speed="13.89" shape="1039.58,4742.22 987.49,4738.45 970.25,4737.19" disallow="pedestrian bicycle tram rail_urban rail rail_electric rail_fast ship">
        <lane index="0">
            <param key="origId" value="310175395"/>
        </lane>
        <lane index="1">
            <param key="origId" value="310175395"/>
        </lane>
    </edge>
    <edge id="-310175395#2" from="3155583469" to="252966638" priority="13" type="highway.trunk" numLanes="2" speed="13.89" disallow="pedestrian bicycle tram rail_urban rail rail_electric rail_fast ship">
        <lane index="0">
            <param key="origId" value="310175395"/>
        </lane>
        <lane index="1">
            <param key="origId" value="310175395"/>
        </lane>
    </edge>
    <edge id="-310175396" from="3155583470" to="3155583469" priority="13" type="highway.trunk" numLanes="2" speed="13.89" disallow="pedestrian bicycle tram rail_urban rail rail_electric rail_fast ship">
        <lane index="0">
            <param key="origId" value="310175396"/>
        </lane>
        <lane index="1">
            <param key="origId" value="310175396"/>
        </lane>
    </edge>
    <edge id="-34922485#18" from="286639355" to="2181488322" name="Инженерная улица" priority="4" type="highway.unclassified" numLanes="1" speed="13.89" shape="6749.32,5918.50 6743.39,5926.78 6664.70,6032.51 6616.73,6096.93 6609.62,6106.48 6523.43,6222.23 6514.37,6234.42 6479.01,6281.91 6468.05,6296.63 6447.81,6323.80 6399.67,6389.26 6381.55,6412.81 6371.79,6425.92 6328.88,6483.28 6296.75,6526.69 6265.18,6568.41 6259.73,6576.90 6230.70,6615.77 6201.11,6655.37 6169.16,6698.15 6149.71,6724.18 6118.73,6765.82 6096.73,6795.37 6091.15,6802.85" disallow="pedestrian tram rail_urban rail rail_electric rail_fast ship">
        <lane index="0">
            <param key="origId" value="34922485"/>
        </lane>
    </edge>
    <edge id="-34922486#8" from="632206656" to="409751363" name="Океанская улица" priority="4" type="highway.unclassified" numLanes="1" speed="13.89" shape="4886.00,8564.95 4886.45,8598.57 4887.40,8672.13 4887.68,8693.10 4887.93,8712.02 4888.03,8719.86 4888.64,8766.71 4888.88,8784.91 4889.53,8835.05 4889.31,8842.36 4887.82,8848.63 4885.01,8855.15 4837.81,8928.97 4829.02,8942.72" disallow="pedestrian tram rail_urban rail rail_electric rail_fast ship">
        <lane index="0">
            <param key="origId" value="34922486"/>
        </lane>
    </edge>
    <edge id="-360668426#3" from="3652281547" to="1412821427" priority="4" type="highway.unclassified" numLanes="1" speed="13.89" shape="9359.88,7028.31 9341.13,7010.93 9309.66,6972.79 9279.80,6942.33 9254.72,6923.82 9218.30,6904.11 9112.00,6863.50 9064.82,6837.24 9025.42,6809.76 8988.39,6776.32 8928.67,6718.40 8837.31,6619.27 8790.13,6576.28 8718.48,6519.54 8681.45,6495.65 8643.82,6478.93 8606.20,6465.80 8550.67,6456.84 8347.04,6440.11 8158.93,6428.16 8043.68,6425.79 7861.54,6420.41 7771.37,6419.62 7724.79,6419.21 7496.68,6412.64 7457.26,6404.88 7428.00,6394.73 7397.55,6372.04 7371.26,6345.76 7353.95,6323.06 7339.62,6312.33 7328.87,6308.73 7319.31,6306.35 7303.19,6304.55 7256.62,6304.26 7246.16,6303.66 7233.62,6299.49 7221.34,6292.56 7197.50,6274.10" disallow="pedestrian tram rail_urban rail rail_electric rail_fast ship">
        <lane index="0">
            <param key="origId" value="360668426 360668426 360668426 848463704 848463704 848463704"/>
        </lane>
    </edge>
    <edge id="-384953637#2" from="252966743" to="252966717" name="Балтийская улица" priority="11" type="highway.secondary" numLanes="1" speed="11.11" shape="0.00,6341.51 70.50,6354.62 135.89,6384.27 154.21,6392.56 242.14,6451.33 799.16,6800.05 1256.85,7085.33 1570.54,7280.84 1588.33,7286.50 1611.42,7293.87 1656.92,7306.73 1734.86,7316.40 2036.90,7306.50 2235.54,7299.98" disallow="pedestrian tram rail_urban rail rail_electric rail_fast ship">
        <lane index="0">
            <param key="origId" value="384953637 384953637 23363570"/>
        </lane>
    </edge>
    <edge id="-39542408#22" from="286639373" to="301558647" name="улица Воеводского" priority="3" type="highway.residential" numLanes="1" speed="11.11" shape="5399.13,1500.97 5415.53,1498.63 5466.53,1493.94 5493.66,1491.11 5567.51,1483.40 5595.90,1481.26 5613.52,1482.75 5627.85,1486.34 5646.06,1493.51 5661.89,1507.54 5685.78,1534.40 5688.76,1538.29 5699.80,1550.54 5708.04,1561.83 5756.78,1627.33 5765.86,1639.54 5780.87,1659.72 5788.20,1669.59 5813.22,1703.08 5819.54,1711.70 5880.05,1793.05 5897.76,1816.86 5919.86,1850.92 5927.33,1870.92 5931.49,1883.25 5935.99,1896.59 5941.35,1923.16 5945.96,1984.02 5948.51,2002.71 5955.84,2056.25 5956.49,2061.02 5963.00,2108.24 5968.27,2146.18 5970.09,2160.67 5977.69,2221.69 5979.24,2233.13" disallow="pedestrian tram rail_urban rail rail_electric rail_fast ship">
        <lane index="0">
            <param key="origId" value="39542408"/>
        </lane>
    </edge>
    <edge id="-40864059#5" from="583005227" to="cluster_7565019525_7760354791" name="Рубиновая улица" priority="2" type="highway.living_street" numLanes="1" speed="2.78" shape="3218.44,8965.78 3217.98,8987.00 3217.49,9011.34 3216.74,9047.92 3215.21,9123.90 3214.92,9132.11 3214.87,9169.27 3214.86,9177.55 3214.85,9184.61 3214.80,9200.70" disallow="tram rail_urban rail rail_electric rail_fast ship">
        <lane index="0">
            <param key="origId" value="40864059 831125580"/>
        </lane>
        <param key="origTo" value="7760354791"/>
    </edge>
    <edge id="-415418914#3" from="286639346" to="286639347" name="улица Героев Труда" priority="11" type="highway.secondary" numLanes="1" speed="16.67" shape="2787.44,7283.31 2788.13,7299.91 2788.75,7314.95 2794.06,7443.03 2794.54,7454.67 2796.05,7491.09 2801.67,7626.82 2802.29,7641.68" disallow="pedestrian tram rail_urban rail rail_electric rail_fast ship">
        <lane index="0">
            <param key="origId" value="415418914"/>
        </lane>
    </edge>
    <edge id="-415418918#4" from="1775164322" to="655415608" name="улица Героев Труда" priority="11" type="highway.secondary" numLanes="1" speed="16.67" shape="2803.67,7685.58 2807.66,7811.88 2810.88,7914.03 2811.97,7948.67 2814.65,8033.31 2816.17,8081.80 2820.35,8178.92 2821.19,8198.32 2829.34,8363.03 2832.32,8398.50" disallow="pedestrian tram rail_urban rail rail_electric rail_fast ship">
        <lane index="0">
            <param key="origId" value="415418918 415418918 415418918 415418918 415418923 415418923 415418923 415418923"/>
        </lane>
    </edge>
    <edge id="-415418918#5" from="286639347" to="1775164322" name="улица Героев Труда" priority="11" type="highway.secondary" numLanes="1" speed="16.67" shape="2802.29,7641.68 2803.05,7665.87 2803.67,7685.58" disallow="pedestrian tram rail_urban rail rail_electric rail_fast ship">
        <lane index="0">
            <param key="origId" value="415418918"/>
        </lane>
    </edge>
    <edge id="-415418923#2" from="655415608" to="286639356" name="улица Героев Труда" priority="11" type="highway.secondary" numLanes="1" speed="16.67" shape="2832.32,8398.50 2835.12,8453.42 2835.96,8470.13 2836.64,8483.34 2838.79,8525.39" disallow="pedestrian tram rail_urban rail rail_electric rail_fast ship">
        <lane index="0">
            <param key="origId" value="415418923"/>
        </lane>
    </edge>
    <edge id="-415418927" from="611759393" to="286639342" name="улица Иванова" priority="10" type="highway.tertiary" numLanes="1" speed="13.89" shape="3117.87,8519.53 3143.51,8545.90 3150.06,8551.84 3157.23,8555.28 3170.07,8555.28 3229.33,8552.73 3252.03,8553.17 3275.62,8553.92 3331.88,8559.75 3370.13,8562.05 3382.41,8562.78 3426.73,8566.54 3459.78,8571.49 3489.73,8579.83 3506.11,8586.62 3520.61,8595.69 3550.35,8612.83 3558.19,8617.35 3723.40,8720.49 3826.33,8786.05 3834.99,8791.35 3935.33,8854.72 4001.96,8895.06 4058.26,8929.14 4086.25,8946.09 4116.85,8965.72 4151.81,8988.16 4164.97,8996.73" disallow="pedestrian tram rail_urban rail rail_electric rail_fast ship">
        <lane index="0">
            <param key="origId" value="415418927 197773683 197773683 197773683 197773683"/>
        </lane>
    </edge>
    <edge id="-42243993#5" from="660466838" to="301509387" name="проспект Академика Коптюга" priority="11" type="highway.secondary" numLanes="1" speed="13.89" shape="5310.92,4470.14 5287.91,4453.34 5216.38,4399.43 5196.86,4384.74 5079.99,4296.68 5021.95,4252.95 4905.71,4164.19 4704.44,4013.73 4681.13,3996.17" disallow="pedestrian tram rail_urban rail rail_electric rail_fast ship">
        <lane index="0">
            <param key="origId" value="42243993"/>
        </lane>
    </edge>
    <edge id="-433769297#7" from="896786767" to="2181488322" name="улица Николаева" priority="4" type="highway.unclassified" numLanes="1" speed="13.89" shape="6705.69,7266.76 6697.72,7260.93 6680.91,7248.25 6649.53,7224.57 6626.95,7207.56 6601.10,7188.23 6558.69,7156.52 6466.62,7087.53 6443.46,7069.31 6372.96,7016.53 6316.26,6974.49 6309.66,6969.64 6266.12,6936.29 6248.93,6923.14 6200.97,6886.42 6192.79,6880.25 6182.94,6872.82 6166.53,6860.46 6110.45,6818.19 6097.46,6808.40 6091.15,6802.85" disallow="pedestrian tram rail_urban rail rail_electric rail_fast ship">
        <lane index="0">
            <param key="origId" value="433769297 433769297 433769296 433769296 433769296 559505747 559505747"/>
        </lane>
    </edge>