<?xml version="1.0" encoding="UTF-8"?>

<!-- generated on 2023-07-12 12:37:16 by Eclipse SUMO netedit Version 1.15.0
<configuration xmlns:xsi="http://www.w3.org/2001/XMLSchema-instance" xsi:noNamespaceSchemaLocation="http://sumo.dlr.de/xsd/netconvertConfiguration.xsd">

    <input>
        <sumo-net-file value="C:\Users\User\Documents\Sumo\tools\2023-07-10-16-42-08\pop.net.xml"/>
    </input>

    <output>
        <output-file value="C:\Users\User\Documents\GitHub\akadem_streets\2023-07-10-16-42-08\pop.net.xml"/>
        <output.street-names value="true"/>
    </output>

    <processing>
        <geometry.min-radius.fix.railways value="false"/>
        <geometry.max-grade.fix value="false"/>
        <offset.disable-normalization value="true"/>
        <lefthand value="0"/>
    </processing>

    <junctions>
        <no-internal-links value="false"/>
        <no-turnarounds value="true"/>
        <junctions.corner-detail value="5"/>
        <junctions.limit-turn-speed value="5.50"/>
        <rectangular-lane-cut value="0"/>
    </junctions>

    <pedestrian>
        <walkingareas value="1"/>
    </pedestrian>

    <netedit>
        <SUMOConfig-output value="C:\Users\User\Documents\GitHub\akadem_streets\2023-07-10-16-42-08\1232142.sumocfg"/>
        <additional-files value="C:\Users\User\Documents\Sumo\tools\2023-07-10-16-42-08\../2023-07-11-10-53-40/osm.poly.xml.gz"/>
        <route-files value="C:\Users\User\Documents\Sumo\tools\2023-07-10-16-42-08\../2023-07-11-10-53-40/osm.passenger.trips.xml"/>
    </netedit>

</configuration>
-->

<tlLogics version="1.9" xmlns:xsi="http://www.w3.org/2001/XMLSchema-instance" xsi:noNamespaceSchemaLocation="http://sumo.dlr.de/xsd/tllogic_file.xsd">
    <tlLogic id="209908111" type="actuated" programID="0" offset="0">
        <phase duration="42" state="GGGgrrrrGgg" minDur="5" maxDur="50"/>
        <phase duration="3"  state="yyyyrrrryyy"/>
        <phase duration="42" state="rrrrGGGGrrG" minDur="5" maxDur="50"/>
        <phase duration="3"  state="rrrryyyyrry"/>
    </tlLogic>
    <tlLogic id="252613842" type="actuated" programID="0" offset="0">
        <phase duration="36" state="rrrrgGGgGGggG" minDur="5" maxDur="50"/>
        <phase duration="5"  state="rrrrgGGgGGggr"/>
        <phase duration="4"  state="rrrryyyyyyyyr"/>
        <phase duration="41" state="GGGGrrrrrrrrr" minDur="7" maxDur="50"/>
        <phase duration="4"  state="yyyyrrrrrrrrr"/>
    </tlLogic>
    <tlLogic id="252613862" type="actuated" programID="0" offset="0">
        <phase duration="36" state="GGggrrrrGGGggrrrr" minDur="7" maxDur="50"/>
        <phase duration="4"  state="yyggrrrryyyggrrrr"/>
        <phase duration="6"  state="rrGGrrrrrrrGGrrrr" minDur="7" maxDur="50"/>
        <phase duration="4"  state="rryyrrrrrrryyrrrr"/>
        <phase duration="36" state="rrrrGGggrrrrrGGgg" minDur="5" maxDur="50"/>
        <phase duration="4"  state="rrrryyyyrrrrryyyy"/>
    </tlLogic>
    <tlLogic id="252613869" type="actuated" programID="0" offset="0">
        <phase duration="41" state="GGGggGGGggrrrr" minDur="7" maxDur="50"/>
        <phase duration="4"  state="yyyyyyyyyyrrrr"/>
        <phase duration="41" state="GrrrrrrrrrGGGg" minDur="5" maxDur="50"/>
        <phase duration="4"  state="yrrrrrrrrryyyy"/>
    </tlLogic>
    <tlLogic id="252613870" type="actuated" programID="0" offset="0">
        <phase duration="42" state="GGggrrrrGGggrrrr" minDur="5" maxDur="50"/>
        <phase duration="3"  state="yyyyrrrryyyyrrrr"/>
        <phase duration="42" state="rrrrGGggrrrrGGgg" minDur="5" maxDur="50"/>
        <phase duration="3"  state="rrrryyyyrrrryyyy"/>
    </tlLogic>
    <tlLogic id="252613876" type="actuated" programID="0" offset="0">
        <phase duration="42" state="rrrrGGGgrrrrGGGgg" minDur="5" maxDur="50"/>
        <phase duration="3"  state="rrrryyyyrrrryyyyy"/>
        <phase duration="42" state="GGggrrrrGGggrrrrr" minDur="5" maxDur="50"/>
        <phase duration="3"  state="yyyyrrrryyyyrrrrr"/>
    </tlLogic>
    <tlLogic id="252613882" type="actuated" programID="0" offset="0">
        <phase duration="42" state="GGgrrrGGg" minDur="5" maxDur="50"/>
        <phase duration="3"  state="yyyrrryyy"/>
        <phase duration="42" state="rrrGGGrrr" minDur="5" maxDur="50"/>
        <phase duration="3"  state="rrryyyrrr"/>
    </tlLogic>
    <tlLogic id="252966717" type="actuated" programID="0" offset="0">
        <phase duration="40" state="rrrrGgGGg" minDur="5" maxDur="50"/>
        <phase duration="5"  state="rrrryyyyy"/>
        <phase duration="40" state="GGGGrrrrr" minDur="10" maxDur="50"/>
        <phase duration="5"  state="yyyyrrrrr"/>
    </tlLogic>
    <tlLogic id="282272147" type="actuated" programID="0" offset="0">
        <phase duration="37" state="GGggrrrgGgG" minDur="5" maxDur="50"/>
        <phase duration="5"  state="GGggrrrgGgr"/>
        <phase duration="3"  state="yyyyrrryyyr"/>
        <phase duration="42" state="rrrrGGGrrrr" minDur="5" maxDur="50"/>
        <phase duration="3"  state="rrrryyyrrrr"/>
    </tlLogic>
    <tlLogic id="286639341" type="actuated" programID="0" offset="0">
        <phase duration="42" state="rrrGGGgGGgg" minDur="5" maxDur="50"/>
        <phase duration="3"  state="rrryyyyyyyy"/>
        <phase duration="42" state="GGgGrrrrrrr" minDur="5" maxDur="50"/>
        <phase duration="3"  state="yyyyrrrrrrr"/>
    </tlLogic>
    <tlLogic id="286639342" type="actuated" programID="0" offset="0">
        <phase duration="42" state="rrrrGGggrrrrGGgg" minDur="5" maxDur="50"/>
        <phase duration="3"  state="rrrryyyyrrrryyyy"/>
        <phase duration="42" state="GGggrrrrGGggrrrr" minDur="5" maxDur="50"/>
        <phase duration="3"  state="yyyyrrrryyyyrrrr"/>
    </tlLogic>
    <tlLogic id="286639346" type="actuated" programID="0" offset="0">
        <phase duration="36" state="rrrGGGgGGgg" minDur="7" maxDur="50"/>
        <phase duration="4"  state="rrryyyyyygg"/>
        <phase duration="6"  state="rrrrrrrGGGG" minDur="7" maxDur="50"/>
        <phase duration="4"  state="rrrrrrryyyy"/>
        <phase duration="36" state="GGgGrrrrrrr" minDur="7" maxDur="50"/>
        <phase duration="4"  state="yyyyrrrrrrr"/>
    </tlLogic>
    <tlLogic id="286639353" type="actuated" programID="0" offset="0">
        <phase duration="42" state="rrrrGGGggGGGgg" minDur="5" maxDur="50"/>
        <phase duration="3"  state="rrrryyyyyyyyyy"/>
        <phase duration="42" state="GGGgGrrrrrrrrr" minDur="5" maxDur="50"/>
        <phase duration="3"  state="yyyyyrrrrrrrrr"/>
    </tlLogic>
    <tlLogic id="286639356" type="actuated" programID="0" offset="0">
        <phase duration="36" state="GggrrrgGgG" minDur="7" maxDur="50"/>
        <phase duration="5"  state="GggrrrgGgr"/>
        <phase duration="4"  state="yyyrrryyyr"/>
        <phase duration="41" state="rrrGGGrrrr" minDur="5" maxDur="50"/>
        <phase duration="4"  state="rrryyyrrrr"/>
    </tlLogic>
    <tlLogic id="286639372" type="actuated" programID="0" offset="0">
        <phase duration="42" state="GGggrrrGGGg" minDur="5" maxDur="50"/>
        <phase duration="3"  state="yyyyrrryyyy"/>
        <phase duration="42" state="rrrrGGgGrrr" minDur="5" maxDur="50"/>
        <phase duration="3"  state="rrrryyyyrrr"/>
    </tlLogic>
    <tlLogic id="417293541" type="actuated" programID="0" offset="0">
        <phase duration="42" state="GGGggrrrrGGGggrrrr" minDur="5" maxDur="50"/>
        <phase duration="3"  state="yyyyyrrrryyyyyrrrr"/>
        <phase duration="42" state="rrrrrGGggrrrrrGGgg" minDur="5" maxDur="50"/>
        <phase duration="3"  state="rrrrryyyyrrrrryyyy"/>
    </tlLogic>
    <tlLogic id="575932021" type="actuated" programID="0" offset="0">
        <phase duration="82" state="GGggGGGg" minDur="5" maxDur="50"/>
        <phase duration="3"  state="yyyyyyyy"/>
        <phase duration="5"  state="rrrrrrrr"/>
    </tlLogic>
    <tlLogic id="637554918" type="actuated" programID="0" offset="0">
        <phase duration="42" state="GGggrrrGGg" minDur="5" maxDur="50"/>
        <phase duration="3"  state="yyyyrrryyy"/>
        <phase duration="42" state="rrrrGGgGrr" minDur="5" maxDur="50"/>
        <phase duration="3"  state="rrrryyyyrr"/>
    </tlLogic>
    <tlLogic id="cluster_301566721_301568025_307659140" type="actuated" programID="0" offset="0">
        <phase duration="32" state="rrrrGGggrrrrGGgg" minDur="5" maxDur="50"/>
        <phase duration="3"  state="rrrryyggrrrryygg"/>
        <phase duration="6"  state="rrrrrrGGrrrrrrGG" minDur="5" maxDur="50"/>
        <phase duration="3"  state="rrrrrryyrrrrrryy"/>
        <phase duration="32" state="GGggrrrrGGggrrrr" minDur="5" maxDur="50"/>
        <phase duration="3"  state="yyggrrrryyggrrrr"/>
        <phase duration="6"  state="rrGGrrrrrrGGrrrr" minDur="5" maxDur="50"/>
        <phase duration="3"  state="rryyrrrrrryyrrrr"/>
        <phase duration="2"  state="rrrrrrrrrrrrrrrr"/>
    </tlLogic>
    <tlLogic id="joinedS_3155583469_3155583470" type="actuated" programID="0" offset="0">
        <phase duration="38" state="GGGGGGggggrrrrGGGGGGggg" minDur="5" maxDur="50"/>
        <phase duration="3"  state="yyyyyyggggrrrryyyyyyggg"/>
        <phase duration="6"  state="rrrrrrGGGGrrrrrrrrrrGGG" minDur="5" maxDur="50"/>
        <phase duration="3"  state="rrrrrryyyyrrrrrrrrrryyy"/>
        <phase duration="37" state="rrrrrrGGggGGGgrrrrrrGGG" minDur="5" maxDur="50"/>
        <phase duration="3"  state="rrrrrryyyyyyyyrrrrrryyy"/>
    </tlLogic>

    <connection from="-124186701#0" to="-309631702#1" fromLane="0" toLane="0" tl="575932021" linkIndex="0"/>
    <connection from="-124186701#0" to="-309631702#1" fromLane="1" toLane="1" tl="575932021" linkIndex="1"/>
    <connection from="-124186701#0" to="45326122#0" fromLane="1" toLane="1" tl="575932021" linkIndex="2"/>
    <connection from="-124186701#0" to="124186701#0" fromLane="1" toLane="1" tl="575932021" linkIndex="3"/>
    <connection from="-207904727#14" to="-559505781#5" fromLane="0" toLane="0" tl="286639353" linkIndex="0"/>
    <connection from="-207904727#14" to="E329" fromLane="0" toLane="0" tl="286639353" linkIndex="1"/>
    <connection from="-207904727#14" to="51272618#0" fromLane="0" toLane="1" tl="286639353" linkIndex="2"/>
    <connection from="-207904727#14" to="207904727#0" fromLane="0" toLane="0" tl="286639353" linkIndex="3"/>
    <connection from="-23328567#1" to="27478484#0" fromLane="0" toLane="0" tl="209908111" linkIndex="0"/>
    <connection from="-23328567#1" to="27475288" fromLane="0" toLane="0" tl="209908111" linkIndex="1"/>
    <connection from="-23328567#1" to="27475288" fromLane="1" toLane="1" tl="209908111" linkIndex="2"/>
    <connection from="-23328567#1" to="23328567#0" fromLane="1" toLane="1" tl="209908111" linkIndex="3"/>
    <connection from="-23328568#1" to="485053285#0" fromLane="0" toLane="1" tl="252613842" linkIndex="4"/>
    <connection from="-23328568#1" to="-831144375#5" fromLane="0" toLane="0" tl="252613842" linkIndex="5"/>
    <connection from="-23328568#1" to="-831144375#5" fromLane="1" toLane="1" tl="252613842" linkIndex="6"/>
    <connection from="-23328568#1" to="23328568#0" fromLane="1" toLane="1" tl="252613842" linkIndex="7"/>
    <connection from="-23328570#13" to="-23328569#2" fromLane="0" toLane="0" tl="252613862" linkIndex="13"/>
    <connection from="-23328570#13" to="-29231523#12" fromLane="0" toLane="0" tl="252613862" linkIndex="14"/>
    <connection from="-23328570#13" to="51270413#0" fromLane="0" toLane="1" tl="252613862" linkIndex="15"/>
    <connection from="-23328570#13" to="23328570#0" fromLane="0" toLane="0" tl="252613862" linkIndex="16"/>
    <connection from="-23328574#5" to="74476999#0" fromLane="0" toLane="0" tl="252613870" linkIndex="0"/>
    <connection from="-23328574#5" to="51270415#0" fromLane="0" toLane="1" tl="252613870" linkIndex="1"/>
    <connection from="-23328574#5" to="-478638718#13" fromLane="0" toLane="0" tl="252613870" linkIndex="2"/>
    <connection from="-23328574#5" to="23328574#0" fromLane="0" toLane="0" tl="252613870" linkIndex="3"/>
    <connection from="-27207208#4" to="519034176#0" fromLane="0" toLane="1" tl="282272147" linkIndex="7"/>
    <connection from="-27207208#4" to="-27207208#0" fromLane="0" toLane="0" tl="282272147" linkIndex="8"/>
    <connection from="-27207208#4" to="27207208#1" fromLane="0" toLane="1" tl="282272147" linkIndex="9"/>
    <connection from="-27475288" to="23328567#0" fromLane="0" toLane="1" tl="209908111" linkIndex="8"/>
    <connection from="-27475288" to="27478484#0" fromLane="0" toLane="2" tl="209908111" linkIndex="9"/>
    <connection from="-27475288" to="27475288" fromLane="0" toLane="1" tl="209908111" linkIndex="10"/>
    <connection from="-310175396" to="-310175395#2" fromLane="0" toLane="0" tl="joinedS_3155583469_3155583470" linkIndex="6"/>
    <connection from="-310175396" to="-310175395#2" fromLane="1" toLane="1" tl="joinedS_3155583469_3155583470" linkIndex="7"/>
    <connection from="-310175396" to="521699318" fromLane="1" toLane="3" tl="joinedS_3155583469_3155583470" linkIndex="8"/>
    <connection from="-310175396" to="310175396" fromLane="1" toLane="1" tl="joinedS_3155583469_3155583470" linkIndex="9"/>
    <connection from="-384953637#2" to="27207213#0" fromLane="0" toLane="0" tl="252966717" linkIndex="6"/>
    <connection from="-384953637#2" to="-27475288" fromLane="0" toLane="0" tl="252966717" linkIndex="7"/>
    <connection from="-384953637#2" to="23363570#0" fromLane="0" toLane="0" tl="252966717" linkIndex="8"/>
    <connection from="-415418923#2" to="-74476994#7" fromLane="0" toLane="1" tl="286639356" linkIndex="6"/>
    <connection from="-415418923#2" to="-26175435#8" fromLane="0" toLane="0" tl="286639356" linkIndex="7"/>
    <connection from="-415418923#2" to="415418923#0" fromLane="0" toLane="0" tl="286639356" linkIndex="8"/>
    <connection from="-415418927" to="-485053287#3" fromLane="0" toLane="0" tl="286639342" linkIndex="8"/>
    <connection from="-415418927" to="-197773683#3" fromLane="0" toLane="0" tl="286639342" linkIndex="9"/>
    <connection from="-415418927" to="485053287#4" fromLane="0" toLane="0" tl="286639342" linkIndex="10"/>
    <connection from="-415418927" to="197773683#4" fromLane="0" toLane="0" tl="286639342" linkIndex="11"/>
    <connection from="-478638718#2" to="-51270413#7" fromLane="0" toLane="0" tl="252613869" linkIndex="10"/>
    <connection from="-478638718#2" to="E96" fromLane="0" toLane="0" tl="252613869" linkIndex="11"/>
    <connection from="-478638718#2" to="51272633#0" fromLane="0" toLane="1" tl="252613869" linkIndex="12"/>
    <connection from="-478638718#2" to="478638718#0" fromLane="0" toLane="0" tl="252613869" linkIndex="13"/>
    <connection from="-485053285#2" to="-831144375#5" fromLane="1" toLane="0" tl="252613842" linkIndex="0"/>
    <connection from="-485053285#2" to="-831144375#5" fromLane="2" toLane="1" tl="252613842" linkIndex="1"/>
    <connection from="-485053285#2" to="23328568#0" fromLane="2" toLane="1" tl="252613842" linkIndex="2"/>
    <connection from="-485053285#2" to="485053285#0" fromLane="2" toLane="2" tl="252613842" linkIndex="3"/>
    <connection from="-485053287#11" to="197773683#4" fromLane="0" toLane="0" tl="286639342" linkIndex="12"/>
    <connection from="-485053287#11" to="-485053287#3" fromLane="0" toLane="0" tl="286639342" linkIndex="13"/>
    <connection from="-485053287#11" to="-197773683#3" fromLane="0" toLane="0" tl="286639342" linkIndex="14"/>
    <connection from="-485053287#11" to="485053287#4" fromLane="0" toLane="0" tl="286639342" linkIndex="15"/>
    <connection from="-485053287#3" to="-55353714#4" fromLane="0" toLane="0" tl="cluster_301566721_301568025_307659140" linkIndex="12"/>
    <connection from="-485053287#3" to="-521697218#8" fromLane="0" toLane="1" tl="cluster_301566721_301568025_307659140" linkIndex="13"/>
    <connection from="-485053287#3" to="146587942#0" fromLane="0" toLane="1" tl="cluster_301566721_301568025_307659140" linkIndex="14"/>
    <connection from="-485053287#3" to="485053287#0" fromLane="0" toLane="0" tl="cluster_301566721_301568025_307659140" linkIndex="15"/>
    <connection from="-51270413#4" to="23328570#0" fromLane="0" toLane="0" tl="252613862" linkIndex="0"/>
    <connection from="-51270413#4" to="-23328569#2" fromLane="0" toLane="0" tl="252613862" linkIndex="1"/>
    <connection from="-51270413#4" to="-29231523#12" fromLane="1" toLane="0" tl="252613862" linkIndex="2"/>
    <connection from="-51270413#4" to="51270413#0" fromLane="1" toLane="1" tl="252613862" linkIndex="3"/>
    <connection from="-51270415#7" to="-478638718#13" fromLane="0" toLane="0" tl="252613870" linkIndex="8"/>
    <connection from="-51270415#7" to="23328574#0" fromLane="0" toLane="0" tl="252613870" linkIndex="9"/>
    <connection from="-51270415#7" to="74476999#0" fromLane="0" toLane="0" tl="252613870" linkIndex="10"/>
    <connection from="-51270415#7" to="51270415#0" fromLane="0" toLane="1" tl="252613870" linkIndex="11"/>
    <connection from="-51272618#7" to="207904727#0" fromLane="0" toLane="0" tl="286639353" linkIndex="4"/>
    <connection from="-51272618#7" to="-559505781#5" fromLane="0" toLane="0" tl="286639353" linkIndex="5"/>
    <connection from="-51272618#7" to="-559505781#5" fromLane="1" toLane="1" tl="286639353" linkIndex="6"/>
    <connection from="-51272618#7" to="E329" fromLane="1" toLane="0" tl="286639353" linkIndex="7"/>
    <connection from="-51272618#7" to="51272618#0" fromLane="1" toLane="1" tl="286639353" linkIndex="8"/>
    <connection from="-51272633#4" to="478638718#0" fromLane="0" toLane="0" tl="252613869" linkIndex="0"/>
    <connection from="-51272633#4" to="-51270413#7" fromLane="0" toLane="0" tl="252613869" linkIndex="1"/>
    <connection from="-51272633#4" to="-51270413#7" fromLane="1" toLane="1" tl="252613869" linkIndex="2"/>
    <connection from="-51272633#4" to="E96" fromLane="1" toLane="0" tl="252613869" linkIndex="3"/>
    <connection from="-51272633#4" to="51272633#0" fromLane="1" toLane="1" tl="252613869" linkIndex="4"/>
    <connection from="-51818689#10" to="86296553#2" fromLane="0" toLane="0" tl="286639372" linkIndex="4"/>
    <connection from="-51818689#10" to="-86296553#1" fromLane="0" toLane="1" tl="286639372" linkIndex="5"/>
    <connection from="-51818689#10" to="478638721" fromLane="0" toLane="0" tl="286639372" linkIndex="6"/>
    <connection from="-519034176#4" to="-27207208#0" fromLane="1" toLane="0" tl="282272147" linkIndex="4"/>
    <connection from="-519034176#4" to="27207208#1" fromLane="1" toLane="1" tl="282272147" linkIndex="5"/>
    <connection from="-519034176#4" to="519034176#0" fromLane="1" toLane="1" tl="282272147" linkIndex="6"/>
    <connection from="-521697218#8" to="-51271000#9" fromLane="0" toLane="0" tl="286639341" linkIndex="7"/>
    <connection from="-521697218#8" to="-51271000#9" fromLane="1" toLane="1" tl="286639341" linkIndex="8"/>
    <connection from="-521697218#8" to="26175437#0" fromLane="1" toLane="1" tl="286639341" linkIndex="9"/>
    <connection from="-521697218#8" to="521697218#0" fromLane="1" toLane="1" tl="286639341" linkIndex="10"/>
    <connection from="-521706064#1" to="521697218#0" fromLane="0" toLane="0" tl="286639341" linkIndex="0"/>
    <connection from="-521706064#1" to="-51271000#9" fromLane="0" toLane="1" tl="286639341" linkIndex="1"/>
    <connection from="-521706064#1" to="26175437#0" fromLane="0" toLane="1" tl="286639341" linkIndex="2"/>
    <connection from="-559505745#2" to="-23328568#1" fromLane="0" toLane="0" tl="252613876" linkIndex="0"/>
    <connection from="-559505745#2" to="-74476999#20" fromLane="0" toLane="0" tl="252613876" linkIndex="1"/>
    <connection from="-559505745#2" to="559505781#0" fromLane="0" toLane="1" tl="252613876" linkIndex="2"/>
    <connection from="-559505745#2" to="26175432#0" fromLane="0" toLane="0" tl="252613876" linkIndex="3"/>
    <connection from="-559505781#5" to="26175432#0" fromLane="0" toLane="0" tl="252613876" linkIndex="4"/>
    <connection from="-559505781#5" to="-23328568#1" fromLane="0" toLane="0" tl="252613876" linkIndex="5"/>
    <connection from="-559505781#5" to="-23328568#1" fromLane="1" toLane="1" tl="252613876" linkIndex="6"/>
    <connection from="-559505781#5" to="559505781#0" fromLane="1" toLane="1" tl="252613876" linkIndex="7"/>
    <connection from="-74476999#20" to="51270415#0" fromLane="0" toLane="0" tl="252613870" linkIndex="12"/>
    <connection from="-74476999#20" to="-478638718#13" fromLane="0" toLane="0" tl="252613870" linkIndex="13"/>
    <connection from="-74476999#20" to="23328574#0" fromLane="0" toLane="0" tl="252613870" linkIndex="14"/>
    <connection from="-74476999#20" to="74476999#0" fromLane="0" toLane="0" tl="252613870" linkIndex="15"/>
    <connection from="-80397282#3" to="-485067571#1" fromLane="0" toLane="0" tl="637554918" linkIndex="7"/>
    <connection from="-80397282#3" to="-51270415#7" fromLane="0" toLane="0" tl="637554918" linkIndex="8"/>
    <connection from="-80397282#3" to="80397282#0" fromLane="1" toLane="1" tl="637554918" linkIndex="9"/>
    <connection from="-831144375#1" to="-415418914#3" fromLane="0" toLane="0" tl="286639346" linkIndex="3"/>
    <connection from="-831144375#1" to="-845110746" fromLane="0" toLane="0" tl="286639346" linkIndex="4"/>
    <connection from="-831144375#1" to="-845110746" fromLane="1" toLane="1" tl="286639346" linkIndex="5"/>
    <connection from="-831144375#1" to="95949167" fromLane="1" toLane="1" tl="286639346" linkIndex="6"/>
    <connection from="-86296553#5" to="-86296553#1" fromLane="0" toLane="0" tl="286639372" linkIndex="0"/>
    <connection from="-86296553#5" to="-86296553#1" fromLane="1" toLane="1" tl="286639372" linkIndex="1"/>
    <connection from="-86296553#5" to="478638721" fromLane="1" toLane="0" tl="286639372" linkIndex="2"/>
    <connection from="-86296553#5" to="86296553#2" fromLane="1" toLane="1" tl="286639372" linkIndex="3"/>
    <connection from="-86371390" to="-124186701#0" fromLane="0" toLane="0" tl="252613882" linkIndex="0"/>
    <connection from="-86371390" to="-124186701#0" fromLane="1" toLane="1" tl="252613882" linkIndex="1"/>
    <connection from="-86371390" to="124186701#1" fromLane="1" toLane="1" tl="252613882" linkIndex="2"/>
    <connection from="-91375465#17" to="-86296553#12" fromLane="0" toLane="0" tl="417293541" linkIndex="14"/>
    <connection from="-91375465#17" to="-86127790#10" fromLane="0" toLane="0" tl="417293541" linkIndex="15"/>
    <connection from="-91375465#17" to="-72107992#2" fromLane="0" toLane="1" tl="417293541" linkIndex="16"/>
    <connection from="-91375465#17" to="91375465#0" fromLane="0" toLane="0" tl="417293541" linkIndex="17"/>
    <connection from="124186701#0" to="124186701#1" fromLane="0" toLane="0" tl="252613882" linkIndex="6"/>
    <connection from="124186701#0" to="124186701#1" fromLane="1" toLane="1" tl="252613882" linkIndex="7"/>
    <connection from="124186701#0" to="-124186701#0" fromLane="1" toLane="1" tl="252613882" linkIndex="8"/>
    <connection from="146587943#11" to="485053287#0" fromLane="0" toLane="0" tl="cluster_301566721_301568025_307659140" linkIndex="0"/>
    <connection from="146587943#11" to="-55353714#4" fromLane="0" toLane="0" tl="cluster_301566721_301568025_307659140" linkIndex="1"/>
    <connection from="146587943#11" to="-521697218#8" fromLane="1" toLane="1" tl="cluster_301566721_301568025_307659140" linkIndex="2"/>
    <connection from="146587943#11" to="146587942#0" fromLane="1" toLane="1" tl="cluster_301566721_301568025_307659140" linkIndex="3"/>
    <connection from="163975773" to="23328567#0" fromLane="0" toLane="0" tl="209908111" linkIndex="4"/>
    <connection from="163975773" to="27478484#0" fromLane="1" toLane="0" tl="209908111" linkIndex="5"/>
    <connection from="163975773" to="27478484#0" fromLane="2" toLane="1" tl="209908111" linkIndex="6"/>
    <connection from="163975773" to="27478484#0" fromLane="3" toLane="2" tl="209908111" linkIndex="7"/>
    <connection from="197773683#0" to="485053287#4" fromLane="0" toLane="0" tl="286639342" linkIndex="0"/>
    <connection from="197773683#0" to="197773683#4" fromLane="0" toLane="0" tl="286639342" linkIndex="1"/>
    <connection from="197773683#0" to="-485053287#3" fromLane="0" toLane="0" tl="286639342" linkIndex="2"/>
    <connection from="197773683#0" to="-197773683#3" fromLane="0" toLane="0" tl="286639342" linkIndex="3"/>
    <connection from="23328568#0" to="-74476999#20" fromLane="0" toLane="0" tl="252613876" linkIndex="12"/>
    <connection from="23328568#0" to="559505781#0" fromLane="0" toLane="0" tl="252613876" linkIndex="13"/>
    <connection from="23328568#0" to="559505781#0" fromLane="1" toLane="1" tl="252613876" linkIndex="14"/>
    <connection from="23328568#0" to="26175432#0" fromLane="1" toLane="0" tl="252613876" linkIndex="15"/>
    <connection from="23328568#0" to="-23328568#1" fromLane="1" toLane="1" tl="252613876" linkIndex="16"/>
    <connection from="23328569#0" to="-29231523#12" fromLane="0" toLane="0" tl="252613862" linkIndex="8"/>
    <connection from="23328569#0" to="51270413#0" fromLane="0" toLane="0" tl="252613862" linkIndex="9"/>
    <connection from="23328569#0" to="51270413#0" fromLane="1" toLane="1" tl="252613862" linkIndex="10"/>
    <connection from="23328569#0" to="23328570#0" fromLane="1" toLane="0" tl="252613862" linkIndex="11"/>
    <connection from="23328569#0" to="-23328569#2" fromLane="1" toLane="0" tl="252613862" linkIndex="12"/>
    <connection from="26175435#1" to="415418923#0" fromLane="0" toLane="0" tl="286639356" linkIndex="0"/>
    <connection from="26175435#1" to="-74476994#7" fromLane="0" toLane="1" tl="286639356" linkIndex="1"/>
    <connection from="26175435#1" to="-26175435#8" fromLane="0" toLane="0" tl="286639356" linkIndex="2"/>
    <connection from="27207208#0" to="27207208#1" fromLane="0" toLane="0" tl="282272147" linkIndex="0"/>
    <connection from="27207208#0" to="27207208#1" fromLane="1" toLane="1" tl="282272147" linkIndex="1"/>
    <connection from="27207208#0" to="519034176#0" fromLane="1" toLane="1" tl="282272147" linkIndex="2"/>
    <connection from="27207208#0" to="-27207208#0" fromLane="1" toLane="0" tl="282272147" linkIndex="3"/>
    <connection from="27475288" to="23363570#0" fromLane="0" toLane="0" tl="252966717" linkIndex="4"/>
    <connection from="27475288" to="-27475288" fromLane="1" toLane="0" tl="252966717" linkIndex="5"/>
    <connection from="29231523#5" to="51270413#0" fromLane="0" toLane="0" tl="252613862" linkIndex="4"/>
    <connection from="29231523#5" to="23328570#0" fromLane="0" toLane="0" tl="252613862" linkIndex="5"/>
    <connection from="29231523#5" to="-23328569#2" fromLane="0" toLane="0" tl="252613862" linkIndex="6"/>
    <connection from="29231523#5" to="-29231523#12" fromLane="0" toLane="0" tl="252613862" linkIndex="7"/>
    <connection from="309631702#0" to="45326122#0" fromLane="0" toLane="0" tl="575932021" linkIndex="4"/>
    <connection from="309631702#0" to="124186701#0" fromLane="0" toLane="0" tl="575932021" linkIndex="5"/>
    <connection from="309631702#0" to="124186701#0" fromLane="1" toLane="1" tl="575932021" linkIndex="6"/>
    <connection from="309631702#0" to="-309631702#1" fromLane="1" toLane="1" tl="575932021" linkIndex="7"/>
    <connection from="310175395#2" to="521699318" fromLane="0" toLane="0" tl="joinedS_3155583469_3155583470" linkIndex="10"/>
    <connection from="310175395#2" to="310175396" fromLane="0" toLane="0" tl="joinedS_3155583469_3155583470" linkIndex="11"/>
    <connection from="310175395#2" to="310175396" fromLane="1" toLane="1" tl="joinedS_3155583469_3155583470" linkIndex="12"/>
    <connection from="310175395#2" to="-310175395#2" fromLane="1" toLane="1" tl="joinedS_3155583469_3155583470" linkIndex="13"/>
    <connection from="310175396" to="51270445" fromLane="0" toLane="2" tl="joinedS_3155583469_3155583470" linkIndex="20"/>
    <connection from="310175396" to="51270445" fromLane="1" toLane="3" tl="joinedS_3155583469_3155583470" linkIndex="21"/>
    <connection from="310175396" to="-310175396" fromLane="1" toLane="1" tl="joinedS_3155583469_3155583470" linkIndex="22"/>
    <connection from="415418914#0" to="-845110746" fromLane="0" toLane="0" tl="286639346" linkIndex="0"/>
    <connection from="415418914#0" to="95949167" fromLane="0" toLane="1" tl="286639346" linkIndex="1"/>
    <connection from="415418914#0" to="-415418914#3" fromLane="0" toLane="0" tl="286639346" linkIndex="2"/>
    <connection from="45786301#10" to="124186701#1" fromLane="0" toLane="0" tl="252613882" linkIndex="3"/>
    <connection from="45786301#10" to="124186701#1" fromLane="1" toLane="1" tl="252613882" linkIndex="4"/>
    <connection from="45786301#10" to="-124186701#0" fromLane="1" toLane="1" tl="252613882" linkIndex="5"/>
    <connection from="478638718#12" to="23328574#0" fromLane="0" toLane="0" tl="252613870" linkIndex="4"/>
    <connection from="478638718#12" to="74476999#0" fromLane="0" toLane="0" tl="252613870" linkIndex="5"/>
    <connection from="478638718#12" to="51270415#0" fromLane="0" toLane="1" tl="252613870" linkIndex="6"/>
    <connection from="478638718#12" to="-478638718#13" fromLane="0" toLane="0" tl="252613870" linkIndex="7"/>
    <connection from="485053283" to="-51270415#7" fromLane="0" toLane="0" tl="637554918" linkIndex="4"/>
    <connection from="485053283" to="80397282#0" fromLane="1" toLane="1" tl="637554918" linkIndex="5"/>
    <connection from="485053283" to="-485067571#1" fromLane="1" toLane="0" tl="637554918" linkIndex="6"/>
    <connection from="485053287#0" to="-197773683#3" fromLane="0" toLane="0" tl="286639342" linkIndex="4"/>
    <connection from="485053287#0" to="485053287#4" fromLane="0" toLane="0" tl="286639342" linkIndex="5"/>
    <connection from="485053287#0" to="197773683#4" fromLane="0" toLane="0" tl="286639342" linkIndex="6"/>
    <connection from="485053287#0" to="-485053287#3" fromLane="0" toLane="0" tl="286639342" linkIndex="7"/>
    <connection from="51270413#5" to="E96" fromLane="0" toLane="0" tl="252613869" linkIndex="5"/>