<?xml version="1.0" encoding="UTF-8"?>

<!-- generated on 2023-07-10 16:42:29.134525 by osmWebWizard.py v1_18_0+0000-03ecfdea036
<configuration>
    <net-file value="C:\Users\Lordarlushecka\Downloads\sumo-win64-1.18.0\sumo-1.18.0\tools\2023-07-10-16-42-08\osm.net.xml.gz"/>
    <output-trip-file value="C:\Users\Lordarlushecka\Downloads\sumo-win64-1.18.0\sumo-1.18.0\tools\2023-07-10-16-42-08\osm.passenger.trips.xml"/>
    <route-file value="C:\Users\Lordarlushecka\Downloads\sumo-win64-1.18.0\sumo-1.18.0\tools\2023-07-10-16-42-08\osm.passenger.rou.xml"/>
    <prefix value="veh"/>
    <trip-attributes value="departLane=&quot;best&quot;"/>
    <fringe-start-attributes value="departSpeed=&quot;max&quot;"/>
    <vehicle-class value="passenger"/>
    <lanes value="True"/>
    <fringe-factor value="5"/>
    <allow-fringe.min-length value="1000.0"/>
    <via-edge-types value="highway.motorway,highway.motorway_link,highway.trunk_link,highway.primary_link,highway.secondary_link,highway.tertiary_link"/>
    <min-distance value="300.0"/>
    <min-distance.fringe value="10.0"/>
    <remove-loops value="True"/>
    <validate value="True"/>
    <insertion-density value="12.0"/>
</configuration>
-->

<!-- generated on 2023-07-10 16:42:28 by Eclipse SUMO duarouter Version 1.15.0
<configuration xmlns:xsi="http://www.w3.org/2001/XMLSchema-instance" xsi:noNamespaceSchemaLocation="http://sumo.dlr.de/xsd/duarouterConfiguration.xsd">

    <input>
        <net-file value="C:\Users\Lordarlushecka\Downloads\sumo-win64-1.18.0\sumo-1.18.0\tools\2023-07-10-16-42-08\osm.net.xml.gz"/>
        <route-files value="C:\Users\Lordarlushecka\Downloads\sumo-win64-1.18.0\sumo-1.18.0\tools\2023-07-10-16-42-08\osm.passenger.trips.xml"/>
    </input>

    <output>
        <output-file value="C:\Users\Lordarlushecka\Downloads\sumo-win64-1.18.0\sumo-1.18.0\tools\2023-07-10-16-42-08\osm.passenger.trips.xml.tmp"/>
        <alternatives-output value="NUL"/>
        <write-trips value="true"/>
    </output>

    <processing>
        <remove-loops value="true"/>
    </processing>

    <time>
        <begin value="0.0"/>
        <end value="3600.0"/>
    </time>

    <report>
        <no-warnings value="true"/>
        <ignore-errors value="true"/>
        <no-step-log value="true"/>
    </report>

</configuration>
-->

<routes xmlns:xsi="http://www.w3.org/2001/XMLSchema-instance" xsi:noNamespaceSchemaLocation="http://sumo.dlr.de/xsd/routes_file.xsd">
    <vType id="veh_passenger" vClass="passenger"/>
    <trip id="veh0" type="veh_passenger" depart="0.00" departLane="best" from="45326122#2" to="-146588339#3"/>
    <trip id="veh1" type="veh_passenger" depart="2.00" departLane="best" from="-521697214#3" to="51272618#4"/>
    <trip id="veh2" type="veh_passenger" depart="4.00" departLane="best" from="-49523273#1" to="478638719#5"/>
    <trip id="veh3" type="veh_passenger" depart="6.00" departLane="best" from="764420324#0" to="-26175437#1"/>
    <trip id="veh4" type="veh_passenger" depart="8.00" departLane="best" from="-114925775#3" to="-167668182#1"/>
    <trip id="veh5" type="veh_passenger" depart="10.00" departLane="best" from="51270413#1" to="253143836#15"/>
    <trip id="veh6" type="veh_passenger" depart="12.00" departLane="best" from="146588339#0" to="485053287#9"/>
    <trip id="veh7" type="veh_passenger" depart="14.00" departLane="best" from="-45780621#14" to="27478484#3"/>
    <trip id="veh8" type="veh_passenger" depart="16.00" departLane="best" from="51270413#3" to="39542408#8"/>
    <trip id="veh9" type="veh_passenger" depart="18.00" departLane="best" from="-51818689#2" to="114925775#4"/>
    <trip id="veh10" type="veh_passenger" depart="20.00" departLane="best" from="-51818689#12" to="485053287#23"/>
    <trip id="veh11" type="veh_passenger" depart="22.00" departLane="best" from="-75978514#1" to="45780621#1"/>
    <trip id="veh12" type="veh_passenger" depart="24.00" departLane="best" from="-91999878#5" to="-831144375#1"/>
    <trip id="veh14" type="veh_passenger" depart="28.00" departLane="best" from="-51818689#14" to="-51270413#4"/>
    <trip id="veh15" type="veh_passenger" depart="30.00" departLane="best" from="-253143836#5" to="92409495#3"/>
    <trip id="veh16" type="veh_passenger" depart="32.00" departLane="best" from="86127790#2" to="193336887"/>
    <trip id="veh17" type="veh_passenger" depart="34.00" departLane="best" from="521699318" to="45326122#8"/>
    <trip id="veh18" type="veh_passenger" depart="36.00" departLane="best" from="-720735850#1" to="360668426#5"/>
    <trip id="veh19" type="veh_passenger" depart="38.00" departLane="best" from="48135007" to="-176437608#7"/>
    <trip id="veh20" type="veh_passenger" depart="40.00" departLane="best" from="51271000#1" to="-61920544#4"/>
    <trip id="veh21" type="veh_passenger" depart="42.00" departLane="best" from="253143836#11" to="51544009#3"/>
    <trip id="veh22" type="veh_passenger" depart="44.00" departLane="best" from="-27475286#4" to="-559505747#2"/>
    <trip id="veh23" type="veh_passenger" depart="46.00" departLane="best" from="-44037281#6" to="-86296553#9"/>
    <trip id="veh24" type="veh_passenger" depart="48.00" departLane="best" from="-86127778#0" to="-51270413#6"/>
    <trip id="veh25" type="veh_passenger" depart="50.00" departLane="best" from="-51826550#3" to="-86296553#7"/>
    <trip id="veh26" type="veh_passenger" depart="52.00" departLane="best" from="-45780621#10" to="44037281#6"/>
    <trip id="veh27" type="veh_passenger" depart="54.00" departLane="best" from="-45780621#4" to="-51270413#3"/>
    <trip id="veh28" type="veh_passenger" depart="56.00" departLane="best" from="-45780621#1" to="91375465#8"/>
    <trip id="veh29" type="veh_passenger" depart="58.00" departLane="best" from="93057745#4" to="45781461#5"/>
    <trip id="veh30" type="veh_passenger" depart="60.00" departLane="best" from="27207212#0" to="-485053283"/>
    <trip id="veh31" type="veh_passenger" depart="62.01" departLane="best" from="559505746#14" to="51479707"/>
    <trip id="veh32" type="veh_passenger" depart="64.01" departLane="best" from="-51271000#3" to="-167668200#2"/>
    <trip id="veh33" type="veh_passenger" depart="66.01" departLane="best" from="72107990#6" to="559505745#1"/>
    <trip id="veh34" type="veh_passenger" depart="68.01" departLane="best" departSpeed="max" from="-49397765#3" to="91375465#15"/>
    <trip id="veh35" type="veh_passenger" depart="70.01" departLane="best" from="72108001#8" to="-74476999#2"/>
    <trip id="veh36" type="veh_passenger" depart="72.01" departLane="best" from="-45780621#5" to="114925775#4"/>
    <trip id="veh37" type="veh_passenger" depart="74.01" departLane="best" from="831144375#4" to="167668200#9"/>
    <trip id="veh38" type="veh_passenger" depart="76.01" departLane="best" from="27207213#3" to="-521706064#1"/>
    <trip id="veh39" type="veh_passenger" depart="78.01" departLane="best" from="-307140306#2" to="77642916#7"/>
    <trip id="veh40" type="veh_passenger" depart="80.01" departLane="best" from="-91375465#26" to="51271000#7"/>
    <trip id="veh41" type="veh_passenger" depart="82.01" departLane="best" from="-936697397#1" to="253143836#7"/>
    <trip id="veh42" type="veh_passenger" depart="84.01" departLane="best" from="-26175435#5" to="-176437608#9"/>
    <trip id="veh43" type="veh_passenger" depart="86.01" departLane="best" from="307140306#7" to="-45780621#22"/>
    <trip id="veh44" type="veh_passenger" depart="88.01" departLane="best" from="51479723#4" to="146587942#13"/>
    <trip id="veh45" type="veh_passenger" depart="90.01" departLane="best" from="-207904727#12" to="91999878#5"/>
    <trip id="veh46" type="veh_passenger" depart="92.01" departLane="best" from="936697395" to="27207212#0"/>
    <trip id="veh48" type="veh_passenger" depart="96.01" departLane="best" from="-127703117#3" to="51189676#3"/>
    <trip id="veh49" type="veh_passenger" depart="98.01" departLane="best" from="45786301#0" to="27475286#1"/>
    <trip id="veh50" type="veh_passenger" depart="100.01" departLane="best" from="-51826550#3" to="45781461#7"/>
    <trip id="veh51" type="veh_passenger" depart="102.01" departLane="best" from="309631702#0" to="146588153#11"/>
    <trip id="veh52" type="veh_passenger" depart="104.01" departLane="best" from="146587943#7" to="91999878#3"/>
    <trip id="veh53" type="veh_passenger" depart="106.01" departLane="best" from="72108001#7" to="-521706070#2"/>
    <trip id="veh54" type="veh_passenger" depart="108.01" departLane="best" from="197773382#8" to="-478638719#5"/>
    <trip id="veh55" type="veh_passenger" depart="110.01" departLane="best" from="831144375#2" to="-72108001#4"/>
    <trip id="veh56" type="veh_passenger" depart="112.01" departLane="best" from="-559505781#2" to="45781461#4"/>
    <trip id="veh57" type="veh_passenger" depart="114.01" departLane="best" from="-360668426#3" to="44037281#5"/>
    <trip id="veh58" type="veh_passenger" depart="116.01" departLane="best" from="51270435#6" to="27478484#1"/>
    <trip id="veh59" type="veh_passenger" depart="118.01" departLane="best" from="-51272618#1" to="27207213#0"/>
    <trip id="veh60" type="veh_passenger" depart="120.01" departLane="best" from="1026459819#1" to="77010861#7"/>
    <trip id="veh61" type="veh_passenger" depart="122.01" departLane="best" from="-146588039#4" to="-86127790#4"/>
    <trip id="veh62" type="veh_passenger" depart="124.01" departLane="best" from="-74476994#4" to="559505745#2"/>
    <trip id="veh63" type="veh_passenger" depart="126.01" departLane="best" departSpeed="max" from="-56660178#8" to="207904727#10"/>
    <trip id="veh64" type="veh_passenger" depart="128.01" departLane="best" from="-74476994#2" to="91375465#23"/>
    <trip id="veh65" type="veh_passenger" depart="130.01" departLane="best" from="-253143836#6" to="207904727#12"/>
    <trip id="veh66" type="veh_passenger" depart="132.01" departLane="best" from="23328569#1" to="-51272618#1"/>
    <trip id="veh67" type="veh_passenger" depart="134.01" departLane="best" from="51270448#1" to="39529496#3"/>
    <trip id="veh68" type="veh_passenger" depart="136.01" departLane="best" from="163975773" to="29231523#6"/>
    <trip id="veh69" type="veh_passenger" depart="138.01" departLane="best" from="-51818689#9" to="-72108001#8"/>
    <trip id="veh70" type="veh_passenger" depart="140.01" departLane="best" from="-114925775#5" to="51270415#2"/>
    <trip id="veh71" type="veh_passenger" depart="142.01" departLane="best" from="-26175432#2" to="-51270413#4"/>
    <trip id="veh72" type="veh_passenger" depart="144.01" departLane="best" from="-485053287#14" to="-74476999#14"/>
    <trip id="veh73" type="veh_passenger" depart="146.01" departLane="best" from="932384167#1" to="45781497#7"/>
    <trip id="veh74" type="veh_passenger" depart="148.01" departLane="best" from="146587943#1" to="26175437#11"/>
    <trip id="veh75" type="veh_passenger" depart="150.01" departLane="best" from="-34922486#2" to="51272618#7"/>
    <trip id="veh76" type="veh_passenger" depart="152.01" departLane="best" from="-74476999#6" to="39542408#6"/>
    <trip id="veh77" type="veh_passenger" depart="154.01" departLane="best" from="-23328570#11" to="45780952#1"/>
    <trip id="veh78" type="veh_passenger" depart="156.01" departLane="best" from="51271000#2" to="-809043969#4"/>
    <trip id="veh79" type="veh_passenger" depart="158.01" departLane="best" from="61920544#3" to="-23328574#1"/>
    <trip id="veh80" type="veh_passenger" depart="160.01" departLane="best" from="51272618#7" to="478638718#10"/>
    <trip id="veh81" type="veh_passenger" depart="162.01" departLane="best" from="-49743607#2" to="-39542408#8"/>
    <trip id="veh82" type="veh_passenger" depart="164.01" departLane="best" from="86296553#11" to="34922486#8"/>
    <trip id="veh83" type="veh_passenger" depart="166.01" departLane="best" from="158634332#2" to="51544009#10"/>
    <trip id="veh84" type="veh_passenger" depart="168.01" departLane="best" from="-51818689#15" to="485053287#1"/>
    <trip id="veh85" type="veh_passenger" depart="170.01" departLane="best" from="-26175437#8" to="146588039#3"/>
    <trip id="veh86" type="veh_passenger" depart="172.01" departLane="best" from="-114925775#6" to="176437608#0"/>
    <trip id="veh87" type="veh_passenger" depart="174.01" departLane="best" from="485053288#1" to="478638718#9"/>
    <trip id="veh88" type="veh_passenger" depart="176.01" departLane="best" departSpeed="max" from="93057745#0" to="-28018709#0"/>
    <trip id="veh89" type="veh_passenger" depart="178.01" departLane="best" from="-91375465#4" to="-831144375#3"/>
    <trip id="veh90" type="veh_passenger" depart="180.01" departLane="best" from="-720735850#0" to="51818689#8"/>
    <trip id="veh91" type="veh_passenger" depart="182.01" departLane="best" from="-48135948#7" to="-158634332#4"/>
    <trip id="veh92" type="veh_passenger" depart="184.01" departLane="best" from="-114925775#3" to="559505781#1"/>
    <trip id="veh93" type="veh_passenger" depart="186.02" departLane="best" from="-51544009#5" to="86127780#16"/>
    <trip id="veh94" type="veh_passenger" depart="188.02" departLane="best" from="146587942#4" to="-72107990#7"/>
    <trip id="veh95" type="veh_passenger" depart="190.02" departLane="best" from="26175437#5" to="-197773382#8"/>
    <trip id="veh96" type="veh_passenger" depart="192.02" departLane="best" from="-936697397#5" to="559505746#13"/>
    <trip id="veh98" type="veh_passenger" depart="196.02" departLane="best" from="559505747#5" to="45783768#1"/>
    <trip id="veh99" type="veh_passenger" depart="198.02" departLane="best" from="175455528#3" to="51271000#1"/>
    <trip id="veh100" type="veh_passenger" depart="200.02" departLane="best" from="-91375465#3" to="207904727#13"/>
    <trip id="veh102" type="veh_passenger" depart="204.02" departLane="best" from="-51818689#9" to="51544009#1"/>
    <trip id="veh103" type="veh_passenger" depart="206.02" departLane="best" from="146588039#1" to="146587942#3"/>
    <trip id="veh104" type="veh_passenger" depart="208.02" departLane="best" from="91999878#5" to="936697397#2"/>
    <trip id="veh105" type="veh_passenger" depart="210.02" departLane="best" from="-26175440#1" to="51189676#0"/>
    <trip id="veh106" type="veh_passenger" depart="212.02" departLane="best" from="-433769296#2" to="72107992#1"/>
    <trip id="veh108" type="veh_passenger" depart="216.02" departLane="best" from="26175435#5" to="51270448#1"/>
    <trip id="veh109" type="veh_passenger" depart="218.02" departLane="best" from="-197773683#10" to="39529496#4"/>
    <trip id="veh111" type="veh_passenger" depart="222.02" departLane="best" from="-433769297#5" to="92409495#1"/>
    <trip id="veh112" type="veh_passenger" depart="224.02" departLane="best" from="-253143836#12" to="48161586#3"/>
    <trip id="veh113" type="veh_passenger" depart="226.02" departLane="best" from="34922485#10" to="478638719#2"/>
    <trip id="veh114" type="veh_passenger" depart="228.02" departLane="best" from="51272618#1" to="-34922485#5"/>
    <trip id="veh115" type="veh_passenger" depart="230.02" departLane="best" from="-75978514#3" to="51818689#3"/>
    <trip id="veh116" type="veh_passenger" depart="232.02" departLane="best" from="34922485#1" to="45326122#9"/>
    <trip id="veh117" type="veh_passenger" depart="234.02" departLane="best" from="-1059305957#2" to="39529496#3"/>
    <trip id="veh118" type="veh_passenger" depart="236.02" departLane="best" from="-23328570#12" to="86296553#4"/>
    <trip id="veh120" type="veh_passenger" depart="240.02" departLane="best" from="-51272618#7" to="114925775#4"/>
    <trip id="veh121" type="veh_passenger" depart="242.02" departLane="best" from="45781497#2" to="72107997#3"/>
    <trip id="veh122" type="veh_passenger" depart="244.02" departLane="best" from="72107990#7" to="51270451"/>
    <trip id="veh123" type="veh_passenger" depart="246.02" departLane="best" from="-23328570#2" to="167668200#9"/>
    <trip id="veh124" type="veh_passenger" depart="248.02" departLane="best" from="23328570#4" to="-51270415#4"/>
    <trip id="veh125" type="veh_passenger" depart="250.02" departLane="best" from="-51818689#9" to="86296553#11"/>
    <trip id="veh126" type="veh_passenger" depart="252.02" departLane="best" from="74476999#11" to="74476999#16"/>
    <trip id="veh127" type="veh_passenger" depart="254.02" departLane="best" departSpeed="max" from="-85470048" to="45780621#14"/>
    <trip id="veh128" type="veh_passenger" depart="256.02" departLane="best" from="521706070#3" to="-485067571#1"/>
    <trip id="veh130" type="veh_passenger" depart="260.02" departLane="best" from="-45780621#22" to="124186701#0"/>
    <trip id="veh131" type="veh_passenger" depart="262.02" departLane="best" from="-51984182#1" to="72107997#2"/>
    <trip id="veh132" type="veh_passenger" depart="264.02" departLane="best" from="45781461#2" to="86371390"/>
    <trip id="veh133" type="veh_passenger" depart="266.02" departLane="best" from="-39529496#3" to="-34922485#11"/>
    <trip id="veh134" type="veh_passenger" depart="268.02" departLane="best" from="307140306#1" to="307140306#10"/>
    <trip id="veh135" type="veh_passenger" depart="270.02" departLane="best" from="-51984182#2" to="433769297#3"/>
    <trip id="veh136" type="veh_passenger" depart="272.02" departLane="best" from="485053286#2" to="49743607#3"/>
    <trip id="veh137" type="veh_passenger" depart="274.02" departLane="best" from="-44037281#3" to="521706070#3"/>
    <trip id="veh138" type="veh_passenger" depart="276.02" departLane="best" from="175960788#2" to="-809043969#4"/>
    <trip id="veh139" type="veh_passenger" depart="278.02" departLane="best" from="-559505746#7" to="26175439"/>
    <trip id="veh140" type="veh_passenger" depart="280.02" departLane="best" from="-114925775#6" to="559505746#9"/>
    <trip id="veh141" type="veh_passenger" depart="282.02" departLane="best" from="-1059305957#3" to="51479707"/>
    <trip id="veh142" type="veh_passenger" depart="284.02" departLane="best" from="-44037281#9" to="-521706064#0"/>
    <trip id="veh144" type="veh_passenger" depart="288.02" departLane="best" from="127703117#1" to="124186701#2"/>
    <trip id="veh145" type="veh_passenger" depart="290.02" departLane="best" from="23328570#8" to="74476999#5"/>
    <trip id="veh147" type="veh_passenger" depart="294.02" departLane="best" from="55353714#0" to="39529496#1"/>
    <trip id="veh148" type="veh_passenger" depart="296.02" departLane="best" from="-415418923#1" to="39529496#1"/>
    <trip id="veh149" type="veh_passenger" depart="298.02" departLane="best" departSpeed="max" from="-56660178#8" to="77642916#9"/>
    <trip id="veh150" type="veh_passenger" depart="300.02" departLane="best" from="-51544009#2" to="-72107990#4"/>
    <trip id="veh151" type="veh_passenger" depart="302.02" departLane="best" from="77642916#0" to="-51270413#6"/>
    <trip id="veh152" type="veh_passenger" depart="304.02" departLane="best" from="-51544009#4" to="-29231523#7"/>
    <trip id="veh153" type="veh_passenger" depart="306.02" departLane="best" from="51272618#4" to="74476999#8"/>
    <trip id="veh154" type="veh_passenger" depart="308.03" departLane="best" from="-91999878#7" to="45780621#0"/>
    <trip id="veh155" type="veh_passenger" depart="310.03" departLane="best" from="-433769296#2" to="-86127790#5"/>
    <trip id="veh156" type="veh_passenger" depart="312.03" departLane="best" from="72107990#4" to="92409495#7"/>
    <trip id="veh157" type="veh_passenger" depart="314.03" departLane="best" from="51818689#5" to="74476999#2"/>
    <trip id="veh158" type="veh_passenger" depart="316.03" departLane="best" from="-146588153#6" to="-51270415#4"/>
    <trip id="veh159" type="veh_passenger" depart="318.03" departLane="best" from="-74476999#12" to="-86127790#7"/>
    <trip id="veh160" type="veh_passenger" depart="320.03" departLane="best" from="51548270#5" to="-72107997#0"/>
    <trip id="veh161" type="veh_passenger" depart="322.03" departLane="best" from="-51818689#5" to="559505745#0"/>
    <trip id="veh162" type="veh_passenger" depart="324.03" departLane="best" from="51341652" to="-309631702#0"/>
    <trip id="veh163" type="veh_passenger" depart="326.03" departLane="best" from="-72107997#4" to="-72107990#0"/>
    <trip id="veh164" type="veh_passenger" depart="328.03" departLane="best" from="51270413#5" to="521697214#4"/>
    <trip id="veh165" type="veh_passenger" depart="330.03" departLane="best" from="146588153#2" to="-72108001#7"/>
    <trip id="veh166" type="veh_passenger" depart="332.03" departLane="best" from="-51544009#10" to="-51272633#2"/>
    <trip id="veh167" type="veh_passenger" depart="334.03" departLane="best" from="-146588153#3" to="485053287#14"/>
    <trip id="veh168" type="veh_passenger" depart="336.03" departLane="best" from="-74476994#1" to="72107997#0"/>
    <trip id="veh170" type="veh_passenger" depart="340.03" departLane="best" from="45326122#4" to="124186701#2"/>
    <trip id="veh171" type="veh_passenger" depart="342.03" departLane="best" departSpeed="max" from="93057745#0" to="27207213#6"/>
    <trip id="veh172" type="veh_passenger" depart="344.03" departLane="best" from="86296553#8" to="-34922485#10"/>
    <trip id="veh175" type="veh_passenger" depart="350.03" departLane="best" from="-307140306#4" to="146588153#10"/>
    <trip id="veh176" type="veh_passenger" depart="352.03" departLane="best" from="485053288#1" to="-74476999#18"/>
    <trip id="veh177" type="veh_passenger" depart="354.03" departLane="best" from="34922488#4" to="26175432#2"/>
    <trip id="veh178" type="veh_passenger" depart="356.03" departLane="best" from="86296553#4" to="360668426#5"/>
    <trip id="veh179" type="veh_passenger" depart="358.03" departLane="best" from="51548270#6" to="49397765#2"/>
    <trip id="veh180" type="veh_passenger" depart="360.03" departLane="best" from="-1028682511#1" to="86127780#7"/>
    <trip id="veh181" type="veh_passenger" depart="362.03" departLane="best" from="-253143836#9" to="51189676#1"/>
    <trip id="veh183" type="veh_passenger" depart="366.03" departLane="best" from="-848463704#0" to="-23328570#8"/>
    <trip id="veh184" type="veh_passenger" depart="368.03" departLane="best" from="45781461#3" to="-80397282#1"/>
    <trip id="veh186" type="veh_passenger" depart="372.03" departLane="best" from="-485053287#11" to="72107997#3"/>
    <trip id="veh187" type="veh_passenger" depart="374.03" departLane="best" from="-61920544#1" to="134024021"/>
    <trip id="veh188" type="veh_passenger" depart="376.03" departLane="best" departSpeed="max" from="-360668426#5" to="146587942#8"/>
    <trip id="veh189" type="veh_passenger" depart="378.03" departLane="best" from="86296553#9" to="48135007"/>
    <trip id="veh190" type="veh_passenger" depart="380.03" departLane="best" from="77642916#8" to="45326122#5"/>
    <trip id="veh191" type="veh_passenger" depart="382.03" departLane="best" from="559505781#4" to="29231523#2"/>
    <trip id="veh193" type="veh_passenger" depart="386.03" departLane="best" from="127703117#5" to="384953637#1"/>
    <trip id="veh194" type="veh_passenger" depart="388.03" departLane="best" from="-45780621#3" to="175960788#0"/>
    <trip id="veh195" type="veh_passenger" depart="390.03" departLane="best" from="146587943#10" to="51270415#5"/>
    <trip id="veh196" type="veh_passenger" depart="392.03" departLane="best" from="158634332#3" to="80397282#2"/>
    <trip id="veh197" type="veh_passenger" depart="394.03" departLane="best" from="-51544009#2" to="459849643#1"/>
    <trip id="veh198" type="veh_passenger" depart="396.03" departLane="best" from="-253143836#4" to="26175435#7"/>
    <trip id="veh199" type="veh_passenger" depart="398.03" departLane="best" from="433769297#6" to="-809043969#4"/>
    <trip id="veh200" type="veh_passenger" depart="400.03" departLane="best" from="-51984186#0" to="51270451"/>
    <trip id="veh201" type="veh_passenger" depart="402.03" departLane="best" from="45781497#3" to="51272618#7"/>
    <trip id="veh202" type="veh_passenger" depart="404.03" departLane="best" from="-485053287#10" to="-146588339#1"/>
    <trip id="veh203" type="veh_passenger" depart="406.03" departLane="best" from="-51544009#10" to="197773382#0"/>
    <trip id="veh204" type="veh_passenger" depart="408.03" departLane="best" from="-559505781#1" to="23363570#0"/>
    <trip id="veh205" type="veh_passenger" depart="410.03" departLane="best" departSpeed="max" from="-936697398" to="45780621#8"/>
    <trip id="veh206" type="veh_passenger" depart="412.03" departLane="best" from="485053283" to="485053287#20"/>
    <trip id="veh207" type="veh_passenger" depart="414.03" departLane="best" from="176437608#5" to="51818689#16"/>
    <trip id="veh208" type="veh_passenger" depart="416.03" departLane="best" from="-45780621#7" to="114925775#2"/>
    <trip id="veh209" type="veh_passenger" depart="418.03" departLane="best" from="51270415#1" to="51341652"/>
    <trip id="veh210" type="veh_passenger" depart="420.03" departLane="best" from="-307140306#0" to="146587943#12"/>
    <trip id="veh211" type="veh_passenger" depart="422.03" departLane="best" from="-45783768#4" to="92409486#1"/>
    <trip id="veh212" type="veh_passenger" depart="424.03" departLane="best" departSpeed="max" from="23328569#0" to="-197773382#8"/>
    <trip id="veh214" type="veh_passenger" depart="428.03" departLane="best" from="146588039#4" to="51818689#3"/>
    <trip id="veh216" type="veh_passenger" depart="432.04" departLane="best" from="34922485#11" to="91375465#3"/>
    <trip id="veh217" type="veh_passenger" depart="434.04" departLane="best" from="127703117#6" to="45326122#2"/>
    <trip id="veh218" type="veh_passenger" depart="436.04" departLane="best" from="-485053287#10" to="253143836#14"/>
    <trip id="veh219" type="veh_passenger" depart="438.04" departLane="best" from="521699319" to="29231523#2"/>
    <trip id="veh220" type="veh_passenger" depart="440.04" departLane="best" from="-77010861#5" to="51270435#5"/>
    <trip id="veh221" type="veh_passenger" depart="442.04" departLane="best" from="163975773" to="-521697218#5"/>
    <trip id="veh222" type="veh_passenger" depart="444.04" departLane="best" departSpeed="max" from="-51544009#12" to="45781461#3"/>
    <trip id="veh223" type="veh_passenger" depart="446.04" departLane="best" from="51270448#1" to="26175437#3"/>
    <trip id="veh224" type="veh_passenger" depart="448.04" departLane="best" from="42243993#1" to="-559505746#4"/>
    <trip id="veh226" type="veh_passenger" depart="452.04" departLane="best" from="-51984182#1" to="75978514#3"/>
    <trip id="veh227" type="veh_passenger" depart="454.04" departLane="best" from="-26175432#4" to="-415418918#3"/>
    <trip id="veh228" type="veh_passenger" depart="456.04" departLane="best" from="51271000#5" to="485053287#14"/>
    <trip id="veh229" type="veh_passenger" depart="458.04" departLane="best" from="48135948#6" to="-23328569#1"/>
    <trip id="veh230" type="veh_passenger" depart="460.04" departLane="best" from="-932384167#0" to="27478484#2-AddedOnRampEdge"/>
    <trip id="veh231" type="veh_passenger" depart="462.04" departLane="best" from="23328567#2" to="-51270413#3"/>
    <trip id="veh232" type="veh_passenger" depart="464.04" departLane="best" from="-1059305957#5" to="-809043969#3"/>
    <trip id="veh233" type="veh_passenger" depart="466.04" departLane="best" from="-1028682511#0" to="485053287#19"/>
    <trip id="veh234" type="veh_passenger" depart="468.04" departLane="best" from="-56660178#5" to="-51272633#1"/>
    <trip id="veh235" type="veh_passenger" depart="470.04" departLane="best" from="86127790#6" to="114925775#3"/>
    <trip id="veh236" type="veh_passenger" depart="472.04" departLane="best" from="-80397282#1" to="51271000#1"/>
    <trip id="veh237" type="veh_passenger" depart="474.04" departLane="best" from="-559505781#5" to="91999878#0"/>
    <trip id="veh238" type="veh_passenger" depart="476.04" departLane="best" from="-1059305957#2" to="51270448#0"/>
    <trip id="veh239" type="veh_passenger" depart="478.04" departLane="best" from="26175437#11" to="433769296#3"/>
    <trip id="veh240" type="veh_passenger" depart="480.04" departLane="best" from="51270413#3" to="51271000#7"/>
    <trip id="veh241" type="veh_passenger" depart="482.04" departLane="best" from="146587942#10" to="-158634332#4"/>
    <trip id="veh242" type="veh_passenger" depart="484.04" departLane="best" from="-74476999#2" to="48135948#5"/>
    <trip id="veh243" type="veh_passenger" depart="486.04" departLane="best" from="-91999878#0" to="-45780952#0"/>
    <trip id="veh244" type="veh_passenger" depart="488.04" departLane="best" from="146588338#6" to="39529496#2"/>
    <trip id="veh245" type="veh_passenger" depart="490.04" departLane="best" from="415418918#4" to="-158634332#0"/>
    <trip id="veh246" type="veh_passenger" depart="492.04" departLane="best" from="-91375465#16" to="34922485#5"/>
    <trip id="veh247" type="veh_passenger" depart="494.04" departLane="best" from="146588339#1" to="45781497#1"/>
    <trip id="veh248" type="veh_passenger" depart="496.04" departLane="best" departSpeed="max" from="-39529496#4" to="175455528#1"/>
    <trip id="veh249" type="veh_passenger" depart="498.04" departLane="best" from="-176437608#5" to="91375465#6"/>
    <trip id="veh250" type="veh_passenger" depart="500.04" departLane="best" departSpeed="max" from="-49397765#3" to="77642916#5"/>
    <trip id="veh251" type="veh_passenger" depart="502.04" departLane="best" from="51270435#5" to="91375465#6"/>
    <trip id="veh252" type="veh_passenger" depart="504.04" departLane="best" from="-51270415#2" to="559505745#2"/>
    <trip id="veh253" type="veh_passenger" depart="506.04" departLane="best" from="51548270#1" to="26175432#1"/>
    <trip id="veh254" type="veh_passenger" depart="508.04" departLane="best" from="-146588039#4" to="27478484#1"/>