<?xml version="1.0" encoding="UTF-8"?>

<!-- generated on 2023-07-13 17:31:54 by Eclipse SUMO netedit Version 1.18.0
<configuration xmlns:xsi="http://www.w3.org/2001/XMLSchema-instance" xsi:noNamespaceSchemaLocation="http://sumo.dlr.de/xsd/neteditConfiguration.xsd">

    <input>
        <sumo-net-file value="C:\Users\marga\Documents\bmm2023\backup\e.net.xml"/>
    </input>

    <output>
        <output-file value="C:\Users\marga\Documents\bmm2023\backup\e.net.xml"/>
        <output.street-names value="true"/>
    </output>

    <processing>
        <geometry.min-radius.fix.railways value="false"/>
        <geometry.max-grade.fix value="false"/>
        <offset.disable-normalization value="true"/>
        <lefthand value="0"/>
    </processing>

    <junctions>
        <no-internal-links value="false"/>
        <no-turnarounds value="true"/>
        <junctions.corner-detail value="5"/>
        <junctions.limit-turn-speed value="5.50"/>
        <rectangular-lane-cut value="0"/>
    </junctions>

    <pedestrian>
        <walkingareas value="1"/>
    </pedestrian>

</configuration>
-->

<net version="1.16" junctionCornerDetail="5" walkingareas="true" limitTurnSpeed="5.50" xmlns:xsi="http://www.w3.org/2001/XMLSchema-instance" xsi:noNamespaceSchemaLocation="http://sumo.dlr.de/xsd/net_file.xsd">

    <location netOffset="-9245636.16,-7327411.49" convBoundary="0.00,1008.79,9359.88,8399.62" origBoundary="83.039524,54.791506,83.139044,54.888569" projParameter="+proj=merc +a=6378137 +b=6378137 +lat_ts=0.0 +lon_0=0.0 +x_0=0.0 +y_0=0 +k=1.0 +units=m +nadgrids=@null +wktext +no_defs"/>

    <type id="highway.footway" priority="1" numLanes="1" speed="2.78" allow="pedestrian" oneway="1" width="2.00"/>
    <type id="highway.living_street" priority="2" numLanes="1" speed="2.78" disallow="tram rail_urban rail rail_electric rail_fast ship" oneway="0"/>
    <type id="highway.primary" priority="12" numLanes="2" speed="40.00" disallow="pedestrian tram rail_urban rail rail_electric rail_fast ship" oneway="0" sidewalkWidth="3.00"/>
    <type id="highway.residential" priority="3" numLanes="1" speed="13.89" disallow="pedestrian tram rail_urban rail rail_electric rail_fast ship" oneway="0" sidewalkWidth="2.00"/>
    <type id="highway.secondary" priority="11" numLanes="1" speed="13.89" disallow="pedestrian tram rail_urban rail rail_electric rail_fast ship" oneway="0" sidewalkWidth="3.00"/>
    <type id="highway.secondary_link" priority="6" numLanes="1" speed="13.89" disallow="pedestrian tram rail_urban rail rail_electric rail_fast ship" oneway="0" sidewalkWidth="3.00"/>
    <type id="highway.tertiary" priority="10" numLanes="1" speed="13.89" disallow="pedestrian tram rail_urban rail rail_electric rail_fast ship" oneway="0" sidewalkWidth="3.00"/>

    <edge id=":1775164258_0" function="internal">
        <lane id=":1775164258_0_0" index="0" disallow="pedestrian tram rail_urban rail rail_electric rail_fast ship" speed="11.11" length="14.39" shape="4931.09,2924.72 4922.34,2936.16"/>
    </edge>
    <edge id=":1775164258_1" function="internal">
        <lane id=":1775164258_1_0" index="0" disallow="pedestrian tram rail_urban rail rail_electric rail_fast ship" speed="8.07" length="4.02" shape="4931.09,2924.72 4928.33,2927.42 4928.17,2927.48"/>
    </edge>
    <edge id=":1775164258_2" function="internal">
        <lane id=":1775164258_2_0" index="0" disallow="pedestrian tram rail_urban rail rail_electric rail_fast ship" speed="3.65" length="1.44" shape="4931.09,2924.72 4929.72,2925.19"/>
    </edge>
    <edge id=":1775164258_9" function="internal">
        <lane id=":1775164258_9_0" index="0" disallow="pedestrian tram rail_urban rail rail_electric rail_fast ship" speed="8.07" length="10.19" shape="4928.17,2927.48 4925.34,2928.60 4922.12,2928.26 4918.67,2926.41"/>
    </edge>
    <edge id=":1775164258_10" function="internal">
        <lane id=":1775164258_10_0" index="0" disallow="pedestrian tram rail_urban rail rail_electric rail_fast ship" speed="3.65" length="3.23" shape="4929.72,2925.19 4928.84,2925.02 4928.45,2924.22 4928.54,2922.78"/>
    </edge>
    <edge id=":1775164258_3" function="internal">
        <lane id=":1775164258_3_0" index="0" disallow="pedestrian tram rail_urban rail rail_electric rail_fast ship" speed="6.59" length="9.14" shape="4920.56,2923.83 4922.78,2925.03 4924.86,2925.25 4926.78,2924.50 4928.54,2922.78"/>
    </edge>
    <edge id=":1775164258_4" function="internal">
        <lane id=":1775164258_4_0" index="0" disallow="pedestrian tram rail_urban rail rail_electric rail_fast ship" speed="7.96" length="14.27" shape="4920.56,2923.83 4923.36,2926.57 4924.60,2929.54 4924.26,2932.73 4922.34,2936.16"/>
    </edge>
    <edge id=":1775164258_5" function="internal">
        <lane id=":1775164258_5_0" index="0" disallow="pedestrian tram rail_urban rail rail_electric rail_fast ship" speed="3.65" length="4.67" shape="4920.56,2923.83 4921.06,2925.18 4920.91,2926.07 4920.11,2926.48 4918.67,2926.41"/>
    </edge>
    <edge id=":1775164258_6" function="internal">
        <lane id=":1775164258_6_0" index="0" disallow="pedestrian tram rail_urban rail rail_electric rail_fast ship" speed="6.46" length="9.03" shape="4919.80,2934.22 4921.01,2932.05 4921.23,2930.03 4920.45,2928.15 4918.67,2926.41"/>
    </edge>
    <edge id=":1775164258_7" function="internal">
        <lane id=":1775164258_7_0" index="0" disallow="pedestrian tram rail_urban rail rail_electric rail_fast ship" speed="11.11" length="14.40" shape="4919.80,2934.22 4928.54,2922.78"/>
    </edge>
    <edge id=":1775164258_8" function="internal">
        <lane id=":1775164258_8_0" index="0" disallow="pedestrian tram rail_urban rail rail_electric rail_fast ship" speed="3.65" length="1.44" shape="4919.80,2934.22 4921.16,2933.75"/>
    </edge>
    <edge id=":1775164258_11" function="internal">
        <lane id=":1775164258_11_0" index="0" disallow="pedestrian tram rail_urban rail rail_electric rail_fast ship" speed="3.65" length="3.23" shape="4921.16,2933.75 4922.04,2933.91 4922.44,2934.72 4922.34,2936.16"/>
    </edge>
    <edge id=":252613862_0" function="internal">
        <lane id=":252613862_0_0" index="0" disallow="pedestrian tram rail_urban rail rail_electric rail_fast ship" speed="6.64" length="9.34" shape="4440.73,2259.21 4438.44,2257.91 4436.31,2257.60 4434.35,2258.28 4432.54,2259.97"/>
    </edge>
    <edge id=":252613862_1" function="internal">
        <lane id=":252613862_1_0" index="0" disallow="pedestrian tram rail_urban rail rail_electric rail_fast ship" speed="8.60" length="17.09" shape="4442.67,2256.67 4439.98,2253.66 4439.17,2250.16 4440.26,2246.19 4443.23,2241.74"/>
    </edge>
    <edge id=":252613862_2" function="internal">
        <lane id=":252613862_2_0" index="0" disallow="pedestrian tram rail_urban rail rail_electric rail_fast ship" speed="3.65" length="2.34" shape="4442.67,2256.67 4442.20,2255.31 4442.37,2254.43"/>
    </edge>
    <edge id=":252613862_9" function="internal">
        <lane id=":252613862_9_0" index="0" disallow="pedestrian tram rail_urban rail rail_electric rail_fast ship" speed="3.65" length="2.34" shape="4442.37,2254.43 4443.17,2254.04 4444.61,2254.13"/>
    </edge>
    <edge id=":252613862_3" function="internal">
        <lane id=":252613862_3_0" index="0" disallow="pedestrian tram rail_urban rail rail_electric rail_fast ship" speed="6.42" length="9.04" shape="4445.68,2243.79 4444.38,2245.91 4444.08,2247.92 4444.81,2249.81 4446.56,2251.59"/>
    </edge>
    <edge id=":252613862_4" function="internal">
        <lane id=":252613862_4_0" index="0" disallow="pedestrian tram rail_urban rail rail_electric rail_fast ship" speed="13.89" length="20.85" shape="4445.68,2243.79 4432.54,2259.97"/>
    </edge>
    <edge id=":252613862_5" function="internal">
        <lane id=":252613862_5_0" index="0" disallow="pedestrian tram rail_urban rail rail_electric rail_fast ship" speed="3.65" length="1.44" shape="4445.68,2243.79 4444.30,2244.20"/>
    </edge>
    <edge id=":252613862_10" function="internal">
        <lane id=":252613862_10_0" index="0" disallow="pedestrian tram rail_urban rail rail_electric rail_fast ship" speed="3.65" length="3.23" shape="4444.30,2244.20 4443.43,2243.99 4443.07,2243.17 4443.23,2241.74"/>
    </edge>
    <edge id=":252613862_6" function="internal">
        <lane id=":252613862_6_0" index="0" disallow="pedestrian tram rail_urban rail rail_electric rail_fast ship" speed="13.89" length="20.93" shape="4430.03,2257.99 4443.23,2241.74"/>
    </edge>
    <edge id=":252613862_7" function="internal">
        <lane id=":252613862_7_0" index="0" disallow="pedestrian tram rail_urban rail rail_electric rail_fast ship" speed="8.77" length="5.67" shape="4430.03,2257.99 4433.71,2254.24 4434.08,2254.05"/>
    </edge>
    <edge id=":252613862_8" function="internal">
        <lane id=":252613862_8_0" index="0" disallow="pedestrian tram rail_urban rail rail_electric rail_fast ship" speed="3.65" length="1.44" shape="4430.03,2257.99 4431.40,2257.54"/>
    </edge>
    <edge id=":252613862_11" function="internal">
        <lane id=":252613862_11_0" index="0" disallow="pedestrian tram rail_urban rail rail_electric rail_fast ship" speed="8.77" length="11.38" shape="4434.08,2254.05 4437.37,2252.35 4441.00,2252.31 4444.61,2254.13"/>
    </edge>
    <edge id=":252613862_12" function="internal">
        <lane id=":252613862_12_0" index="0" disallow="pedestrian tram rail_urban rail rail_electric rail_fast ship" speed="3.65" length="3.23" shape="4431.40,2257.54 4432.28,2257.72 4432.66,2258.53 4432.54,2259.97"/>
    </edge>
    <edge id=":252613869_0" function="internal">
        <lane id=":252613869_0_0" index="0" disallow="pedestrian tram rail_urban rail rail_electric rail_fast ship" speed="6.52" length="9.04" shape="5074.78,2746.13 5072.62,2744.91 5070.59,2744.68 5068.69,2745.43 5066.91,2747.16"/>
    </edge>
    <edge id=":252613869_1" function="internal">
        <lane id=":252613869_1_0" index="0" disallow="pedestrian tram rail_urban rail rail_electric rail_fast ship" speed="13.89" length="14.40" shape="5074.78,2746.13 5063.36,2737.35"/>
        <lane id=":252613869_1_1" index="1" disallow="pedestrian tram rail_urban rail rail_electric rail_fast ship" speed="13.89" length="14.40" shape="5076.73,2743.59 5065.31,2734.81"/>
    </edge>
    <edge id=":252613869_3" function="internal">
        <lane id=":252613869_3_0" index="0" disallow="pedestrian tram rail_urban rail rail_electric rail_fast ship" speed="8.57" length="3.70" shape="5076.73,2743.59 5074.29,2740.82"/>
    </edge>
    <edge id=":252613869_4" function="internal">
        <lane id=":252613869_4_0" index="0" disallow="pedestrian tram rail_urban rail rail_electric rail_fast ship" speed="3.65" length="1.44" shape="5076.73,2743.59 5076.27,2742.22"/>
    </edge>
    <edge id=":252613869_14" function="internal">
        <lane id=":252613869_14_0" index="0" disallow="pedestrian tram rail_urban rail rail_electric rail_fast ship" speed="8.57" length="13.09" shape="5074.29,2740.82 5074.14,2740.65 5073.38,2737.22 5074.45,2733.29 5077.34,2728.86"/>
    </edge>
    <edge id=":252613869_15" function="internal">
        <lane id=":252613869_15_0" index="0" disallow="pedestrian tram rail_urban rail rail_electric rail_fast ship" speed="3.65" length="3.23" shape="5076.27,2742.22 5076.44,2741.35 5077.24,2740.96 5078.68,2741.05"/>
    </edge>
    <edge id=":252613869_5" function="internal">
        <lane id=":252613869_5_0" index="0" disallow="pedestrian tram rail_urban rail rail_electric rail_fast ship" speed="6.65" length="9.27" shape="5069.21,2729.74 5071.43,2731.00 5073.52,2731.27 5075.49,2730.56 5077.34,2728.86"/>
    </edge>
    <edge id=":252613869_6" function="internal">
        <lane id=":252613869_6_0" index="0" disallow="pedestrian tram rail_urban rail rail_electric rail_fast ship" speed="13.89" length="14.41" shape="5069.21,2729.74 5080.63,2738.52"/>
        <lane id=":252613869_6_1" index="1" disallow="pedestrian tram rail_urban rail rail_electric rail_fast ship" speed="13.89" length="14.41" shape="5067.26,2732.27 5078.68,2741.05"/>
    </edge>
    <edge id=":252613869_8" function="internal">
        <lane id=":252613869_8_0" index="0" disallow="pedestrian tram rail_urban rail rail_electric rail_fast ship" speed="8.67" length="3.72" shape="5067.26,2732.27 5069.72,2735.06"/>
    </edge>
    <edge id=":252613869_9" function="internal">
        <lane id=":252613869_9_0" index="0" disallow="pedestrian tram rail_urban rail rail_electric rail_fast ship" speed="3.65" length="1.44" shape="5067.26,2732.27 5067.72,2733.64"/>
    </edge>
    <edge id=":252613869_16" function="internal">
        <lane id=":252613869_16_0" index="0" disallow="pedestrian tram rail_urban rail rail_electric rail_fast ship" speed="8.67" length="13.15" shape="5069.72,2735.06 5069.86,2735.22 5070.67,2738.68 5069.69,2742.66 5066.91,2747.16"/>
    </edge>
    <edge id=":252613869_17" function="internal">
        <lane id=":252613869_17_0" index="0" disallow="pedestrian tram rail_urban rail rail_electric rail_fast ship" speed="3.65" length="3.23" shape="5067.72,2733.64 5067.55,2734.52 5066.75,2734.91 5065.31,2734.81"/>
    </edge>
    <edge id=":252613869_10" function="internal">
        <lane id=":252613869_10_0" index="0" disallow="pedestrian tram rail_urban rail rail_electric rail_fast ship" speed="6.50" length="9.03" shape="5064.38,2745.20 5065.60,2743.05 5065.84,2741.02 5065.09,2739.12 5063.36,2737.35"/>
    </edge>
    <edge id=":252613869_11" function="internal">
        <lane id=":252613869_11_0" index="0" disallow="pedestrian tram rail_urban rail rail_electric rail_fast ship" speed="12.50" length="20.85" shape="5064.38,2745.20 5077.34,2728.86"/>
    </edge>
    <edge id=":252613869_12" function="internal">
        <lane id=":252613869_12_0" index="0" disallow="pedestrian tram rail_urban rail rail_electric rail_fast ship" speed="8.68" length="16.85" shape="5064.38,2745.20 5068.03,2741.38 5071.63,2739.41 5075.18,2739.30 5078.68,2741.05"/>
    </edge>
    <edge id=":252613869_13" function="internal">
        <lane id=":252613869_13_0" index="0" disallow="pedestrian tram rail_urban rail rail_electric rail_fast ship" speed="3.65" length="1.44" shape="5064.38,2745.20 5065.75,2744.74"/>
    </edge>
    <edge id=":252613869_18" function="internal">
        <lane id=":252613869_18_0" index="0" disallow="pedestrian tram rail_urban rail rail_electric rail_fast ship" speed="3.65" length="3.23" shape="5065.75,2744.74 5066.62,2744.91 5067.01,2745.72 5066.91,2747.16"/>
    </edge>
    <edge id=":252613870_0" function="internal">
        <lane id=":252613870_0_0" index="0" disallow="pedestrian tram rail_urban rail rail_electric rail_fast ship" speed="7.56" length="12.37" shape="4160.53,3957.17 4157.69,3956.95 4155.30,3958.01 4153.36,3960.33 4151.88,3963.92"/>
    </edge>
    <edge id=":252613870_1" function="internal">
        <lane id=":252613870_1_0" index="0" disallow="pedestrian tram rail_urban rail rail_electric rail_fast ship" speed="12.50" length="15.14" shape="4160.53,3957.17 4145.98,3952.97"/>
    </edge>
    <edge id=":252613870_2" function="internal">
        <lane id=":252613870_2_0" index="0" disallow="pedestrian tram rail_urban rail rail_electric rail_fast ship" speed="7.68" length="4.37" shape="4160.53,3957.17 4156.63,3955.46 4156.56,3955.37"/>
    </edge>
    <edge id=":252613870_3" function="internal">
        <lane id=":252613870_3_0" index="0" disallow="pedestrian tram rail_urban rail rail_electric rail_fast ship" speed="3.65" length="1.44" shape="4160.53,3957.17 4159.59,3956.08"/>
    </edge>
    <edge id=":252613870_16" function="internal">
        <lane id=":252613870_16_0" index="0" disallow="pedestrian tram rail_urban rail rail_electric rail_fast ship" speed="7.68" length="10.67" shape="4156.56,3955.37 4154.50,3952.99 4154.13,3949.74 4155.52,3945.72"/>
    </edge>
    <edge id=":252613870_17" function="internal">
        <lane id=":252613870_17_0" index="0" disallow="pedestrian tram rail_urban rail rail_electric rail_fast ship" speed="3.65" length="3.23" shape="4159.59,3956.08 4159.41,3955.20 4160.01,3954.53 4161.38,3954.08"/>
    </edge>
    <edge id=":252613870_4" function="internal">
        <lane id=":252613870_4_0" index="0" disallow="pedestrian tram rail_urban rail rail_electric rail_fast ship" speed="6.10" length="9.06" shape="4158.37,3947.19 4157.53,3949.61 4157.75,3951.56 4159.03,3953.06 4161.38,3954.08"/>
    </edge>
    <edge id=":252613870_5" function="internal">
        <lane id=":252613870_5_0" index="0" disallow="pedestrian tram rail_urban rail rail_electric rail_fast ship" speed="11.11" length="17.96" shape="4158.37,3947.19 4156.58,3951.00 4154.80,3955.42 4153.17,3959.91 4151.88,3963.92"/>
    </edge>
    <edge id=":252613870_6" function="internal">
        <lane id=":252613870_6_0" index="0" disallow="pedestrian tram rail_urban rail rail_electric rail_fast ship" speed="8.82" length="4.19" shape="4158.37,3947.19 4156.00,3950.64"/>
    </edge>
    <edge id=":252613870_7" function="internal">
        <lane id=":252613870_7_0" index="0" disallow="pedestrian tram rail_urban rail rail_electric rail_fast ship" speed="3.65" length="1.44" shape="4158.37,3947.19 4157.10,3947.89"/>
    </edge>
    <edge id=":252613870_18" function="internal">
        <lane id=":252613870_18_0" index="0" disallow="pedestrian tram rail_urban rail rail_electric rail_fast ship" speed="8.82" length="10.85" shape="4156.00,3950.64 4153.14,3952.75 4149.80,3953.53 4145.98,3952.97"/>
    </edge>
    <edge id=":252613870_19" function="internal">
        <lane id=":252613870_19_0" index="0" disallow="pedestrian tram rail_urban rail rail_electric rail_fast ship" speed="3.65" length="3.23" shape="4157.10,3947.89 4156.21,3947.87 4155.68,3947.15 4155.52,3945.72"/>
    </edge>
    <edge id=":252613870_8" function="internal">
        <lane id=":252613870_8_0" index="0" disallow="pedestrian tram rail_urban rail rail_electric rail_fast ship" speed="7.47" length="10.53" shape="4146.90,3949.90 4149.54,3950.28 4151.85,3949.70 4153.85,3948.18 4155.52,3945.72"/>
    </edge>
    <edge id=":252613870_9" function="internal">
        <lane id=":252613870_9_0" index="0" disallow="pedestrian tram rail_urban rail rail_electric rail_fast ship" speed="12.50" length="15.07" shape="4146.90,3949.90 4161.38,3954.08"/>
    </edge>
    <edge id=":252613870_10" function="internal">
        <lane id=":252613870_10_0" index="0" disallow="pedestrian tram rail_urban rail rail_electric rail_fast ship" speed="8.68" length="3.52" shape="4146.90,3949.90 4150.02,3951.55"/>
    </edge>
    <edge id=":252613870_11" function="internal">
        <lane id=":252613870_11_0" index="0" disallow="pedestrian tram rail_urban rail rail_electric rail_fast ship" speed="3.65" length="1.44" shape="4146.90,3949.90 4147.82,3951.02"/>
    </edge>
    <edge id=":252613870_20" function="internal">
        <lane id=":252613870_20_0" index="0" disallow="pedestrian tram rail_urban rail rail_electric rail_fast ship" speed="8.68" length="13.30" shape="4150.02,3951.55 4150.36,3951.73 4152.34,3954.68 4152.85,3958.74 4151.88,3963.92"/>
    </edge>
    <edge id=":252613870_21" function="internal">
        <lane id=":252613870_21_0" index="0" disallow="pedestrian tram rail_urban rail rail_electric rail_fast ship" speed="3.65" length="3.23" shape="4147.82,3951.02 4147.97,3951.90 4147.36,3952.55 4145.98,3952.97"/>
    </edge>
    <edge id=":252613870_12" function="internal">
        <lane id=":252613870_12_0" index="0" disallow="pedestrian tram rail_urban rail rail_electric rail_fast ship" speed="6.52" length="9.03" shape="4148.82,3963.01 4149.18,3960.56 4148.67,3958.58 4147.29,3957.07 4145.05,3956.03"/>
    </edge>
    <edge id=":252613870_13" function="internal">
        <lane id=":252613870_13_0" index="0" disallow="pedestrian tram rail_urban rail rail_electric rail_fast ship" speed="11.11" length="18.56" shape="4148.82,3963.01 4150.14,3958.91 4151.84,3954.23 4153.71,3949.62 4155.52,3945.72"/>
    </edge>
    <edge id=":252613870_14" function="internal">
        <lane id=":252613870_14_0" index="0" disallow="pedestrian tram rail_urban rail rail_electric rail_fast ship" speed="8.87" length="5.84" shape="4148.82,3963.01 4150.87,3958.15 4151.25,3957.73"/>
    </edge>
    <edge id=":252613870_15" function="internal">
        <lane id=":252613870_15_0" index="0" disallow="pedestrian tram rail_urban rail rail_electric rail_fast ship" speed="3.65" length="1.44" shape="4148.82,3963.01 4149.92,3962.09"/>
    </edge>
    <edge id=":252613870_22" function="internal">
        <lane id=":252613870_22_0" index="0" disallow="pedestrian tram rail_urban rail rail_electric rail_fast ship" speed="8.87" length="11.60" shape="4151.25,3957.73 4153.66,3955.05 4157.16,3953.69 4161.38,3954.08"/>
    </edge>
    <edge id=":252613870_23" function="internal">
        <lane id=":252613870_23_0" index="0" disallow="pedestrian tram rail_urban rail rail_electric rail_fast ship" speed="3.65" length="3.23" shape="4149.92,3962.09 4150.80,3961.93 4151.46,3962.54 4151.88,3963.92"/>
    </edge>
    <edge id=":252613876_0" function="internal">
        <lane id=":252613876_0_0" index="0" disallow="pedestrian tram rail_urban rail rail_electric rail_fast ship" speed="9.32" length="19.64" shape="4708.67,6813.65 4705.60,6816.18 4701.67,6816.67 4696.88,6815.15 4691.22,6811.60"/>
    </edge>
    <edge id=":252613876_1" function="internal">
        <lane id=":252613876_1_0" index="0" disallow="pedestrian tram rail_urban rail rail_electric rail_fast ship" speed="3.65" length="1.44" shape="4706.11,6811.74 4704.75,6812.22"/>
    </edge>
    <edge id=":252613876_5" function="internal">
        <lane id=":252613876_5_0" index="0" disallow="pedestrian tram rail_urban rail rail_electric rail_fast ship" speed="3.65" length="3.23" shape="4704.75,6812.22 4703.87,6812.06 4703.47,6811.26 4703.54,6809.82"/>
    </edge>
    <edge id=":252613876_2" function="internal">
        <lane id=":252613876_2_0" index="0" disallow="pedestrian tram rail_urban rail rail_electric rail_fast ship" speed="6.50" length="9.03" shape="4693.14,6809.04 4695.32,6810.23 4697.34,6810.44 4699.23,6809.66 4700.98,6807.91"/>
        <lane id=":252613876_2_1" index="1" disallow="pedestrian tram rail_urban rail rail_electric rail_fast ship" speed="7.32" length="11.73" shape="4693.14,6809.04 4696.44,6811.07 4699.27,6811.87 4701.64,6811.46 4703.54,6809.82"/>
    </edge>
    <edge id=":252613876_4" function="internal">
        <lane id=":252613876_4_0" index="0" disallow="pedestrian tram rail_urban rail rail_electric rail_fast ship" speed="3.65" length="1.44" shape="4693.14,6809.04 4693.62,6810.40"/>
    </edge>
    <edge id=":252613876_6" function="internal">
        <lane id=":252613876_6_0" index="0" disallow="pedestrian tram rail_urban rail rail_electric rail_fast ship" speed="3.65" length="3.23" shape="4693.62,6810.40 4693.46,6811.28 4692.66,6811.68 4691.22,6811.60"/>
    </edge>
    <edge id=":252613879_0" function="internal">
        <lane id=":252613879_0_0" index="0" disallow="pedestrian tram rail_urban rail rail_electric rail_fast ship" speed="12.50" length="7.32" shape="4567.86,4077.31 4566.04,4076.17 4564.67,4075.60 4563.20,4075.23 4561.10,4074.67"/>
    </edge>
    <edge id=":252613879_1" function="internal">
        <lane id=":252613879_1_0" index="0" disallow="pedestrian tram rail_urban rail rail_electric rail_fast ship" speed="5.41" length="4.56" shape="4567.86,4077.31 4565.61,4075.43 4564.75,4074.05"/>
    </edge>
    <edge id=":252613879_4" function="internal">
        <lane id=":252613879_4_0" index="0" disallow="pedestrian tram rail_urban rail rail_electric rail_fast ship" speed="5.41" length="3.56" shape="4564.75,4074.05 4564.58,4073.79 4564.78,4072.38 4566.20,4071.22"/>
    </edge>
    <edge id=":252613879_2" function="internal">
        <lane id=":252613879_2_0" index="0" disallow="pedestrian tram rail_urban rail rail_electric rail_fast ship" speed="7.21" length="4.38" shape="4562.02,4071.60 4563.26,4071.93 4564.16,4072.00 4565.04,4071.77 4566.20,4071.22"/>
    </edge>
    <edge id=":252613879_3" function="internal">
        <lane id=":252613879_3_0" index="0" disallow="pedestrian tram rail_urban rail rail_electric rail_fast ship" speed="3.65" length="1.44" shape="4562.02,4071.60 4562.94,4072.71"/>
    </edge>
    <edge id=":252613879_5" function="internal">
        <lane id=":252613879_5_0" index="0" disallow="pedestrian tram rail_urban rail rail_electric rail_fast ship" speed="3.65" length="3.23" shape="4562.94,4072.71 4563.09,4073.60 4562.48,4074.25 4561.10,4074.67"/>
    </edge>
    <edge id=":252613882_0" function="internal">
        <lane id=":252613882_0_0" index="0" disallow="pedestrian tram rail_urban rail rail_electric rail_fast ship" speed="7.02" length="10.69" shape="6047.96,4998.45 6051.16,5001.10 6053.19,5003.35 6054.03,5005.20 6053.69,5006.64"/>
    </edge>
    <edge id=":252613882_1" function="internal">
        <lane id=":252613882_1_0" index="0" disallow="pedestrian tram rail_urban rail rail_electric rail_fast ship" speed="3.65" length="0.53" shape="6051.13,5004.71 6051.63,5004.54"/>
    </edge>
    <edge id=":252613882_2" function="internal">
        <lane id=":252613882_2_0" index="0" disallow="pedestrian tram rail_urban rail rail_electric rail_fast ship" speed="3.65" length="4.14" shape="6051.63,5004.54 6052.49,5004.23 6053.37,5004.40 6053.77,5005.20 6053.69,5006.64"/>
    </edge>
    <edge id=":286639353_0" function="internal">
        <lane id=":286639353_0_0" index="0" disallow="pedestrian tram rail_urban rail rail_electric rail_fast ship" speed="13.89" length="11.22" shape="5208.76,6143.87 5202.05,6152.87"/>
        <lane id=":286639353_0_1" index="1" disallow="pedestrian tram rail_urban rail rail_electric rail_fast ship" speed="13.89" length="11.22" shape="5206.19,6141.96 5199.48,6150.95"/>
    </edge>
    <edge id=":286639353_2" function="internal">
        <lane id=":286639353_2_0" index="0" disallow="pedestrian tram rail_urban rail rail_electric rail_fast ship" speed="8.35" length="2.18" shape="5206.19,6141.96 5204.40,6143.19"/>
    </edge>
    <edge id=":286639353_3" function="internal">
        <lane id=":286639353_3_0" index="0" disallow="pedestrian tram rail_urban rail rail_electric rail_fast ship" speed="3.65" length="1.44" shape="5206.19,6141.96 5204.83,6142.44"/>
    </edge>
    <edge id=":286639353_8" function="internal">
        <lane id=":286639353_8_0" index="0" disallow="pedestrian tram rail_urban rail rail_electric rail_fast ship" speed="8.35" length="12.38" shape="5204.40,6143.19 5204.26,6143.29 5201.40,6143.32 5197.62,6142.05 5192.91,6139.49"/>
    </edge>
    <edge id=":286639353_9" function="internal">
        <lane id=":286639353_9_0" index="0" disallow="pedestrian tram rail_urban rail rail_electric rail_fast ship" speed="3.65" length="3.23" shape="5204.83,6142.44 5203.95,6142.28 5203.55,6141.49 5203.63,6140.05"/>
    </edge>
    <edge id=":286639353_4" function="internal">
        <lane id=":286639353_4_0" index="0" disallow="pedestrian tram rail_urban rail rail_electric rail_fast ship" speed="6.33" length="9.04" shape="5194.35,6147.12 5195.55,6144.92 5195.71,6142.91 5194.83,6141.10 5192.91,6139.49"/>
    </edge>
    <edge id=":286639353_5" function="internal">
        <lane id=":286639353_5_0" index="0" disallow="pedestrian tram rail_urban rail rail_electric rail_fast ship" speed="13.89" length="11.22" shape="5194.35,6147.12 5201.06,6138.13"/>
        <lane id=":286639353_5_1" index="1" disallow="pedestrian tram rail_urban rail rail_electric rail_fast ship" speed="13.89" length="11.22" shape="5196.92,6149.04 5203.63,6140.05"/>
    </edge>
    <edge id=":286639353_7" function="internal">
        <lane id=":286639353_7_0" index="0" disallow="pedestrian tram rail_urban rail rail_electric rail_fast ship" speed="3.65" length="1.44" shape="5196.92,6149.04 5198.28,6148.55"/>
    </edge>
    <edge id=":286639353_10" function="internal">
        <lane id=":286639353_10_0" index="0" disallow="pedestrian tram rail_urban rail rail_electric rail_fast ship" speed="3.65" length="3.23" shape="5198.28,6148.55 5199.16,6148.71 5199.56,6149.51 5199.48,6150.95"/>
    </edge>
    <edge id=":286639372_0" function="internal">
        <lane id=":286639372_0_0" index="0" disallow="pedestrian tram rail_urban rail rail_electric rail_fast ship" speed="13.89" length="15.58" shape="5609.42,3156.85 5597.05,3147.37"/>
        <lane id=":286639372_0_1" index="1" disallow="pedestrian tram rail_urban rail rail_electric rail_fast ship" speed="13.89" length="15.58" shape="5611.36,3154.31 5599.00,3144.83"/>
    </edge>
    <edge id=":286639372_2" function="internal">
        <lane id=":286639372_2_0" index="0" disallow="pedestrian tram rail_urban rail rail_electric rail_fast ship" speed="11.61" length="2.51" shape="5611.36,3154.31 5609.90,3152.27"/>
    </edge>
    <edge id=":286639372_3" function="internal">
        <lane id=":286639372_3_0" index="0" disallow="pedestrian tram rail_urban rail rail_electric rail_fast ship" speed="3.65" length="1.44" shape="5611.36,3154.31 5610.89,3152.95"/>
    </edge>
    <edge id=":286639372_11" function="internal">
        <lane id=":286639372_11_0" index="0" disallow="pedestrian tram rail_urban rail rail_electric rail_fast ship" speed="11.61" length="15.33" shape="5609.90,3152.27 5609.82,3152.17 5608.92,3148.59 5608.65,3143.56 5609.03,3137.10"/>
    </edge>
    <edge id=":286639372_12" function="internal">