<?xml version="1.0" encoding="UTF-8"?>

<!-- generated on 2023-07-13 17:31:59 by Eclipse SUMO netedit Version 1.18.0
<configuration xmlns:xsi="http://www.w3.org/2001/XMLSchema-instance" xsi:noNamespaceSchemaLocation="http://sumo.dlr.de/xsd/neteditConfiguration.xsd">

    <input>
        <sumo-net-file value="C:\Users\marga\Documents\bmm2023\backup\r.net.xml"/>
    </input>

    <output>
        <output-file value="C:\Users\marga\Documents\bmm2023\backup\r.net.xml"/>
        <output.street-names value="true"/>
    </output>

    <processing>
        <geometry.min-radius.fix.railways value="false"/>
        <geometry.max-grade.fix value="false"/>
        <offset.disable-normalization value="true"/>
        <lefthand value="0"/>
    </processing>

    <junctions>
        <no-internal-links value="false"/>
        <no-turnarounds value="true"/>
        <junctions.corner-detail value="5"/>
        <junctions.limit-turn-speed value="5.50"/>
        <rectangular-lane-cut value="0"/>
    </junctions>

    <pedestrian>
        <walkingareas value="1"/>
    </pedestrian>

</configuration>
-->

<net version="1.16" junctionCornerDetail="5" walkingareas="true" limitTurnSpeed="5.50" xmlns:xsi="http://www.w3.org/2001/XMLSchema-instance" xsi:noNamespaceSchemaLocation="http://sumo.dlr.de/xsd/net_file.xsd">

    <location netOffset="-9245636.16,-7327411.49" convBoundary="0.00,0.00,9359.88,12282.96" origBoundary="83.039524,54.791506,83.139044,54.888569" projParameter="+proj=merc +a=6378137 +b=6378137 +lat_ts=0.0 +lon_0=0.0 +x_0=0.0 +y_0=0 +k=1.0 +units=m +nadgrids=@null +wktext +no_defs"/>

    <type id="highway.living_street" priority="2" numLanes="1" speed="2.78" disallow="tram rail_urban rail rail_electric rail_fast ship" oneway="0"/>
    <type id="highway.residential" priority="3" numLanes="1" speed="13.89" disallow="pedestrian tram rail_urban rail rail_electric rail_fast ship" oneway="0" sidewalkWidth="2.00"/>
    <type id="highway.secondary" priority="11" numLanes="1" speed="13.89" disallow="pedestrian tram rail_urban rail rail_electric rail_fast ship" oneway="0" sidewalkWidth="3.00"/>
    <type id="highway.secondary_link" priority="6" numLanes="1" speed="13.89" disallow="pedestrian tram rail_urban rail rail_electric rail_fast ship" oneway="0" sidewalkWidth="3.00"/>
    <type id="highway.tertiary" priority="10" numLanes="1" speed="13.89" disallow="pedestrian tram rail_urban rail rail_electric rail_fast ship" oneway="0" sidewalkWidth="3.00"/>
    <type id="highway.trunk" priority="13" numLanes="2" speed="13.89" disallow="pedestrian bicycle tram rail_urban rail rail_electric rail_fast ship" oneway="0"/>
    <type id="highway.trunk_link" priority="8" numLanes="1" speed="13.89" disallow="pedestrian bicycle tram rail_urban rail rail_electric rail_fast ship" oneway="0"/>
    <type id="highway.unclassified" priority="4" numLanes="1" speed="13.89" disallow="pedestrian tram rail_urban rail rail_electric rail_fast ship" oneway="0" sidewalkWidth="2.00"/>

    <edge id=":10083797320_0" function="internal">
        <lane id=":10083797320_0_0" index="0" disallow="pedestrian tram rail_urban rail rail_electric rail_fast ship" speed="13.89" length="15.26" shape="2356.17,7301.46 2351.42,7302.00 2347.97,7303.24 2345.10,7304.91 2342.10,7306.70"/>
    </edge>
    <edge id=":10083797320_1" function="internal">
        <lane id=":10083797320_1_0" index="0" disallow="pedestrian tram rail_urban rail rail_electric rail_fast ship" speed="13.89" length="15.35" shape="2356.17,7301.46 2340.83,7301.91"/>
        <lane id=":10083797320_1_1" index="1" disallow="pedestrian tram rail_urban rail rail_electric rail_fast ship" speed="13.89" length="15.35" shape="2356.11,7298.26 2340.75,7298.71"/>
    </edge>
    <edge id=":10083797320_3" function="internal">
        <lane id=":10083797320_3_0" index="0" disallow="pedestrian tram rail_urban rail rail_electric rail_fast ship" speed="3.65" length="1.44" shape="2356.11,7298.26 2354.90,7297.48"/>
    </edge>
    <edge id=":10083797320_8" function="internal">
        <lane id=":10083797320_8_0" index="0" disallow="pedestrian tram rail_urban rail rail_electric rail_fast ship" speed="3.65" length="3.23" shape="2354.90,7297.48 2354.49,7296.69 2354.88,7295.88 2356.06,7295.06"/>
    </edge>
    <edge id=":10083797320_4" function="internal">
        <lane id=":10083797320_4_0" index="0" disallow="pedestrian tram rail_urban rail rail_electric rail_fast ship" speed="13.89" length="15.42" shape="2340.58,7292.31 2356.01,7291.86"/>
        <lane id=":10083797320_4_1" index="1" disallow="pedestrian tram rail_urban rail rail_electric rail_fast ship" speed="13.89" length="15.42" shape="2340.67,7295.51 2356.06,7295.06"/>
    </edge>
    <edge id=":10083797320_6" function="internal">
        <lane id=":10083797320_6_0" index="0" disallow="pedestrian tram rail_urban rail rail_electric rail_fast ship" speed="6.29" length="2.14" shape="2340.67,7295.51 2342.68,7296.21"/>
    </edge>
    <edge id=":10083797320_7" function="internal">
        <lane id=":10083797320_7_0" index="0" disallow="pedestrian tram rail_urban rail rail_electric rail_fast ship" speed="3.65" length="1.44" shape="2340.67,7295.51 2341.89,7296.28"/>
    </edge>
    <edge id=":10083797320_9" function="internal">
        <lane id=":10083797320_9_0" index="0" disallow="pedestrian tram rail_urban rail rail_electric rail_fast ship" speed="6.29" length="13.28" shape="2342.68,7296.21 2344.31,7296.78 2345.81,7299.94 2345.09,7303.68 2342.10,7306.70"/>
    </edge>
    <edge id=":10083797320_10" function="internal">
        <lane id=":10083797320_10_0" index="0" disallow="pedestrian tram rail_urban rail rail_electric rail_fast ship" speed="3.65" length="3.23" shape="2341.89,7296.28 2342.31,7297.07 2341.93,7297.88 2340.75,7298.71"/>
    </edge>
    <edge id=":1056825276_0" function="internal">
        <lane id=":1056825276_0_0" index="0" disallow="pedestrian tram rail_urban rail rail_electric rail_fast ship" speed="3.65" length="4.67" shape="3892.01,7714.18 3892.30,7715.59 3892.01,7716.44 3891.17,7716.72 3889.75,7716.44"/>
    </edge>
    <edge id=":1111750416_0" function="internal">
        <lane id=":1111750416_0_0" index="0" disallow="pedestrian tram rail_urban rail rail_electric rail_fast ship" speed="15.28" length="0.24" shape="2420.11,7299.74 2419.89,7299.75"/>
        <lane id=":1111750416_0_1" index="1" disallow="pedestrian tram rail_urban rail rail_electric rail_fast ship" speed="15.28" length="0.24" shape="2420.02,7296.55 2419.75,7296.55"/>
    </edge>
    <edge id=":1111750416_2" function="internal">
        <lane id=":1111750416_2_0" index="0" disallow="pedestrian tram rail_urban rail rail_electric rail_fast ship" speed="15.28" length="0.34" shape="2419.48,7290.16 2419.84,7290.15"/>
        <lane id=":1111750416_2_1" index="1" disallow="pedestrian tram rail_urban rail rail_electric rail_fast ship" speed="15.28" length="0.34" shape="2419.62,7293.36 2419.93,7293.35"/>
    </edge>
    <edge id=":1152766245_0" function="internal">
        <lane id=":1152766245_0_0" index="0" disallow="pedestrian tram rail_urban rail rail_electric rail_fast ship" speed="6.96" length="10.53" shape="4571.52,7186.89 4570.14,7187.45 4569.14,7189.18 4568.51,7192.08 4568.27,7196.15"/>
    </edge>
    <edge id=":1152766245_1" function="internal">
        <lane id=":1152766245_1_0" index="0" disallow="pedestrian tram rail_urban rail rail_electric rail_fast ship" speed="16.67" length="9.41" shape="4571.52,7186.89 4562.12,7186.75"/>
    </edge>
    <edge id=":1152766245_2" function="internal">
        <lane id=":1152766245_2_0" index="0" disallow="pedestrian tram rail_urban rail rail_electric rail_fast ship" speed="3.65" length="1.44" shape="4571.52,7186.89 4570.33,7186.08"/>
    </edge>
    <edge id=":1152766245_9" function="internal">
        <lane id=":1152766245_9_0" index="0" disallow="pedestrian tram rail_urban rail rail_electric rail_fast ship" speed="3.65" length="3.23" shape="4570.33,7186.08 4569.95,7185.27 4570.36,7184.48 4571.57,7183.69"/>
    </edge>
    <edge id=":1152766245_3" function="internal">
        <lane id=":1152766245_3_0" index="0" disallow="pedestrian tram rail_urban rail rail_electric rail_fast ship" speed="16.67" length="10.10" shape="4562.22,7180.35 4565.08,7180.89 4566.89,7182.02 4568.71,7183.15 4571.57,7183.69"/>
    </edge>
    <edge id=":1152766245_4" function="internal">
        <lane id=":1152766245_4_0" index="0" disallow="pedestrian tram rail_urban rail rail_electric rail_fast ship" speed="8.34" length="2.61" shape="4562.17,7183.55 4564.66,7184.30"/>
    </edge>
    <edge id=":1152766245_5" function="internal">
        <lane id=":1152766245_5_0" index="0" disallow="pedestrian tram rail_urban rail rail_electric rail_fast ship" speed="3.65" length="1.44" shape="4562.17,7183.55 4563.35,7184.37"/>
    </edge>
    <edge id=":1152766245_10" function="internal">
        <lane id=":1152766245_10_0" index="0" disallow="pedestrian tram rail_urban rail rail_electric rail_fast ship" speed="8.34" length="12.87" shape="4564.66,7184.30 4564.89,7184.37 4566.82,7186.75 4567.94,7190.67 4568.27,7196.15"/>
    </edge>
    <edge id=":1152766245_11" function="internal">
        <lane id=":1152766245_11_0" index="0" disallow="pedestrian tram rail_urban rail rail_electric rail_fast ship" speed="3.65" length="3.23" shape="4563.35,7184.37 4563.74,7185.17 4563.33,7185.97 4562.12,7186.75"/>
    </edge>
    <edge id=":1152766245_6" function="internal">
        <lane id=":1152766245_6_0" index="0" disallow="pedestrian tram rail_urban rail rail_electric rail_fast ship" speed="6.02" length="7.57" shape="4565.07,7196.10 4564.91,7193.42 4564.36,7191.51 4563.41,7190.35 4562.07,7189.95"/>
    </edge>
    <edge id=":1152766245_7" function="internal">
        <lane id=":1152766245_7_0" index="0" disallow="pedestrian tram rail_urban rail rail_electric rail_fast ship" speed="8.33" length="15.51" shape="4565.07,7196.10 4565.53,7190.63 4566.77,7186.74 4568.78,7184.43 4571.57,7183.69"/>
    </edge>
    <edge id=":1152766245_8" function="internal">
        <lane id=":1152766245_8_0" index="0" disallow="pedestrian tram rail_urban rail rail_electric rail_fast ship" speed="3.65" length="4.67" shape="4565.07,7196.10 4565.89,7194.91 4566.70,7194.52 4567.49,7194.94 4568.27,7196.15"/>
    </edge>
    <edge id=":1324672413_0" function="internal">
        <lane id=":1324672413_0_0" index="0" disallow="pedestrian bicycle tram rail_urban rail rail_electric rail_fast ship" speed="22.22" length="15.90" shape="2296.67,9587.53 2296.13,9571.57"/>
        <lane id=":1324672413_0_1" index="1" disallow="pedestrian bicycle tram rail_urban rail rail_electric rail_fast ship" speed="22.22" length="15.90" shape="2299.86,9587.39 2299.33,9571.50"/>
        <lane id=":1324672413_0_2" index="2" disallow="pedestrian bicycle tram rail_urban rail rail_electric rail_fast ship" speed="22.22" length="15.90" shape="2303.06,9587.25 2302.53,9571.43"/>
    </edge>
    <edge id=":1324672413_3" function="internal">
        <lane id=":1324672413_3_0" index="0" disallow="pedestrian bicycle tram rail_urban rail rail_electric rail_fast ship" speed="7.93" length="13.80" shape="2303.06,9587.25 2303.02,9581.70 2303.46,9577.70 2304.37,9575.27 2305.75,9574.40"/>
        <lane id=":1324672413_3_1" index="1" disallow="pedestrian bicycle tram rail_urban rail rail_electric rail_fast ship" speed="7.09" length="10.81" shape="2303.06,9587.25 2303.08,9583.10 2303.57,9580.10 2304.52,9578.27 2305.92,9577.60"/>
    </edge>
    <edge id=":1324672413_5" function="internal">
        <lane id=":1324672413_5_0" index="0" disallow="pedestrian bicycle tram rail_urban rail rail_electric rail_fast ship" speed="8.35" length="15.92" shape="2306.27,9583.99 2303.35,9583.34 2301.22,9581.05 2299.88,9577.10 2299.33,9571.50"/>
        <lane id=":1324672413_5_1" index="1" disallow="pedestrian bicycle tram rail_urban rail rail_electric rail_fast ship" speed="6.99" length="10.82" shape="2306.10,9580.79 2304.62,9580.28 2303.53,9578.54 2302.84,9575.59 2302.53,9571.43"/>
    </edge>
    <edge id=":1324672413_7" function="internal">
        <lane id=":1324672413_7_0" index="0" disallow="pedestrian bicycle tram rail_urban rail rail_electric rail_fast ship" speed="3.65" length="4.67" shape="2306.10,9580.79 2304.86,9580.06 2304.41,9579.28 2304.77,9578.46 2305.92,9577.60"/>
    </edge>
    <edge id=":1324672414_0" function="internal">
        <lane id=":1324672414_0_0" index="0" disallow="pedestrian bicycle tram rail_urban rail rail_electric rail_fast ship" speed="22.22" length="15.80" shape="2329.44,9570.14 2330.04,9585.93"/>
        <lane id=":1324672414_0_1" index="1" disallow="pedestrian bicycle tram rail_urban rail rail_electric rail_fast ship" speed="22.22" length="15.80" shape="2326.24,9570.26 2326.84,9586.05"/>
        <lane id=":1324672414_0_2" index="2" disallow="pedestrian bicycle tram rail_urban rail rail_electric rail_fast ship" speed="22.22" length="15.80" shape="2323.05,9570.38 2323.64,9586.18"/>
    </edge>
    <edge id=":1324672414_3" function="internal">
        <lane id=":1324672414_3_0" index="0" disallow="pedestrian bicycle tram rail_urban rail rail_electric rail_fast ship" speed="7.93" length="13.74" shape="2323.05,9570.38 2323.06,9575.94 2322.63,9579.93 2321.74,9582.35 2320.40,9583.22"/>
        <lane id=":1324672414_3_1" index="1" disallow="pedestrian bicycle tram rail_urban rail rail_electric rail_fast ship" speed="7.08" length="10.75" shape="2323.05,9570.38 2323.00,9574.54 2322.52,9577.53 2321.60,9579.36 2320.23,9580.03"/>
    </edge>
    <edge id=":1324672414_5" function="internal">
        <lane id=":1324672414_5_0" index="0" disallow="pedestrian bicycle tram rail_urban rail rail_electric rail_fast ship" speed="8.37" length="15.80" shape="2319.88,9573.64 2322.75,9574.28 2324.86,9576.56 2326.23,9580.49 2326.84,9586.05"/>
        <lane id=":1324672414_5_1" index="1" disallow="pedestrian bicycle tram rail_urban rail rail_electric rail_fast ship" speed="7.00" length="10.76" shape="2320.06,9576.83 2321.49,9577.35 2322.57,9579.08 2323.28,9582.02 2323.64,9586.18"/>
    </edge>
    <edge id=":1324672414_7" function="internal">
        <lane id=":1324672414_7_0" index="0" disallow="pedestrian bicycle tram rail_urban rail rail_electric rail_fast ship" speed="3.65" length="4.67" shape="2320.06,9576.83 2321.30,9577.56 2321.74,9578.34 2321.39,9579.16 2320.23,9580.03"/>
    </edge>
    <edge id=":1324672475_0" function="internal">
        <lane id=":1324672475_0_0" index="0" disallow="pedestrian bicycle tram rail_urban rail rail_electric rail_fast ship" speed="22.22" length="15.80" shape="2363.11,10429.85 2363.78,10445.64"/>
        <lane id=":1324672475_0_1" index="1" disallow="pedestrian bicycle tram rail_urban rail rail_electric rail_fast ship" speed="22.22" length="15.80" shape="2359.91,10429.99 2360.58,10445.78"/>
        <lane id=":1324672475_0_2" index="2" disallow="pedestrian bicycle tram rail_urban rail rail_electric rail_fast ship" speed="22.22" length="15.80" shape="2356.72,10430.13 2357.39,10445.91"/>
    </edge>
    <edge id=":1324672475_3" function="internal">
        <lane id=":1324672475_3_0" index="0" disallow="pedestrian bicycle tram rail_urban rail rail_electric rail_fast ship" speed="7.86" length="13.76" shape="2356.72,10430.13 2356.75,10435.69 2356.32,10439.68 2355.42,10442.09 2354.05,10442.93"/>
        <lane id=":1324672475_3_1" index="1" disallow="pedestrian bicycle tram rail_urban rail rail_electric rail_fast ship" speed="7.01" length="10.73" shape="2356.72,10430.13 2356.69,10434.29 2356.22,10437.28 2355.31,10439.10 2353.94,10439.74"/>
    </edge>
    <edge id=":1324672475_5" function="internal">
        <lane id=":1324672475_5_0" index="0" disallow="pedestrian bicycle tram rail_urban rail rail_electric rail_fast ship" speed="8.41" length="15.67" shape="2353.73,10433.34 2356.53,10434.04 2358.60,10436.35 2359.95,10440.26 2360.58,10445.78"/>
        <lane id=":1324672475_5_1" index="1" disallow="pedestrian bicycle tram rail_urban rail rail_electric rail_fast ship" speed="7.06" length="10.73" shape="2353.84,10436.54 2355.24,10437.09 2356.30,10438.83 2357.01,10441.77 2357.39,10445.91"/>
    </edge>
    <edge id=":1324672475_7" function="internal">
        <lane id=":1324672475_7_0" index="0" disallow="pedestrian bicycle tram rail_urban rail rail_electric rail_fast ship" speed="3.65" length="4.67" shape="2353.84,10436.54 2355.06,10437.30 2355.49,10438.09 2355.12,10438.90 2353.94,10439.74"/>
    </edge>
    <edge id=":1324672477_0" function="internal">
        <lane id=":1324672477_0_0" index="0" disallow="pedestrian bicycle tram rail_urban rail rail_electric rail_fast ship" speed="22.22" length="15.80" shape="2333.76,10446.78 2333.09,10430.99"/>
        <lane id=":1324672477_0_1" index="1" disallow="pedestrian bicycle tram rail_urban rail rail_electric rail_fast ship" speed="22.22" length="15.80" shape="2336.96,10446.64 2336.28,10430.86"/>
        <lane id=":1324672477_0_2" index="2" disallow="pedestrian bicycle tram rail_urban rail rail_electric rail_fast ship" speed="22.22" length="15.80" shape="2340.16,10446.51 2339.48,10430.72"/>
    </edge>
    <edge id=":1324672477_3" function="internal">
        <lane id=":1324672477_3_0" index="0" disallow="pedestrian bicycle tram rail_urban rail rail_electric rail_fast ship" speed="7.86" length="13.76" shape="2340.16,10446.51 2340.12,10440.94 2340.55,10436.95 2341.45,10434.54 2342.83,10433.70"/>
        <lane id=":1324672477_3_1" index="1" disallow="pedestrian bicycle tram rail_urban rail rail_electric rail_fast ship" speed="7.01" length="10.74" shape="2340.16,10446.51 2340.18,10442.34 2340.65,10439.35 2341.56,10437.53 2342.93,10436.89"/>
    </edge>
    <edge id=":1324672477_5" function="internal">
        <lane id=":1324672477_5_0" index="0" disallow="pedestrian bicycle tram rail_urban rail rail_electric rail_fast ship" speed="8.41" length="15.68" shape="2343.14,10443.29 2340.34,10442.59 2338.27,10440.28 2336.92,10436.37 2336.28,10430.86"/>
        <lane id=":1324672477_5_1" index="1" disallow="pedestrian bicycle tram rail_urban rail rail_electric rail_fast ship" speed="7.06" length="10.73" shape="2343.03,10440.09 2341.63,10439.54 2340.57,10437.80 2339.86,10434.86 2339.48,10430.72"/>
    </edge>
    <edge id=":1324672477_7" function="internal">
        <lane id=":1324672477_7_0" index="0" disallow="pedestrian bicycle tram rail_urban rail rail_electric rail_fast ship" speed="3.65" length="4.67" shape="2343.03,10440.09 2341.81,10439.33 2341.38,10438.54 2341.76,10437.73 2342.93,10436.89"/>
    </edge>
    <edge id=":1324673520_0" function="internal">
        <lane id=":1324673520_0_0" index="0" disallow="pedestrian bicycle tram rail_urban rail rail_electric rail_fast ship" speed="22.22" length="15.83" shape="2343.00,10662.67 2342.33,10646.85"/>
        <lane id=":1324673520_0_1" index="1" disallow="pedestrian bicycle tram rail_urban rail rail_electric rail_fast ship" speed="22.22" length="15.83" shape="2346.20,10662.53 2345.53,10646.71"/>
        <lane id=":1324673520_0_2" index="2" disallow="pedestrian bicycle tram rail_urban rail rail_electric rail_fast ship" speed="22.22" length="15.83" shape="2349.40,10662.39 2348.72,10646.58"/>
    </edge>
    <edge id=":1324673520_3" function="internal">
        <lane id=":1324673520_3_0" index="0" disallow="pedestrian bicycle tram rail_urban rail rail_electric rail_fast ship" speed="8.12" length="13.86" shape="2349.40,10662.39 2349.36,10656.86 2349.80,10652.85 2350.69,10650.37 2352.06,10649.43"/>
        <lane id=":1324673520_3_1" index="1" disallow="pedestrian bicycle tram rail_urban rail rail_electric rail_fast ship" speed="7.29" length="10.97" shape="2349.40,10662.39 2349.44,10658.26 2349.95,10655.25 2350.95,10653.36 2352.42,10652.61"/>
    </edge>
    <edge id=":1324673520_5" function="internal">
        <lane id=":1324673520_5_0" index="0" disallow="pedestrian bicycle tram rail_urban rail rail_electric rail_fast ship" speed="8.32" length="16.25" shape="2353.14,10658.96 2350.02,10658.50 2347.71,10656.30 2346.21,10652.37 2345.53,10646.71"/>
        <lane id=":1324673520_5_1" index="1" disallow="pedestrian bicycle tram rail_urban rail rail_electric rail_fast ship" speed="6.94" length="10.99" shape="2352.78,10655.79 2351.16,10655.37 2349.94,10653.69 2349.13,10650.76 2348.72,10646.58"/>
    </edge>
    <edge id=":1324673520_7" function="internal">
        <lane id=":1324673520_7_0" index="0" disallow="pedestrian bicycle tram rail_urban rail rail_electric rail_fast ship" speed="3.65" length="4.67" shape="2352.78,10655.79 2351.50,10655.13 2351.01,10654.38 2351.32,10653.54 2352.42,10652.61"/>
    </edge>
    <edge id=":1324673521_0" function="internal">
        <lane id=":1324673521_0_0" index="0" disallow="pedestrian bicycle tram rail_urban rail rail_electric rail_fast ship" speed="22.22" length="15.83" shape="2372.23,10644.59 2372.90,10660.40"/>
        <lane id=":1324673521_0_1" index="1" disallow="pedestrian bicycle tram rail_urban rail rail_electric rail_fast ship" speed="22.22" length="15.83" shape="2369.03,10644.72 2369.70,10660.54"/>
        <lane id=":1324673521_0_2" index="2" disallow="pedestrian bicycle tram rail_urban rail rail_electric rail_fast ship" speed="22.22" length="15.83" shape="2365.83,10644.86 2366.50,10660.68"/>
    </edge>
    <edge id=":1324673521_3" function="internal">
        <lane id=":1324673521_3_0" index="0" disallow="pedestrian bicycle tram rail_urban rail rail_electric rail_fast ship" speed="8.12" length="13.86" shape="2365.83,10644.86 2365.87,10650.39 2365.43,10654.40 2364.53,10656.88 2363.17,10657.82"/>
        <lane id=":1324673521_3_1" index="1" disallow="pedestrian bicycle tram rail_urban rail rail_electric rail_fast ship" speed="7.29" length="10.98" shape="2365.83,10644.86 2365.79,10648.99 2365.28,10652.00 2364.28,10653.89 2362.81,10654.64"/>
    </edge>
    <edge id=":1324673521_5" function="internal">
        <lane id=":1324673521_5_0" index="0" disallow="pedestrian bicycle tram rail_urban rail rail_electric rail_fast ship" speed="8.32" length="16.26" shape="2362.08,10648.29 2365.21,10648.75 2367.52,10650.95 2369.02,10654.88 2369.70,10660.54"/>
        <lane id=":1324673521_5_1" index="1" disallow="pedestrian bicycle tram rail_urban rail rail_electric rail_fast ship" speed="6.94" length="10.99" shape="2362.45,10651.47 2364.07,10651.89 2365.28,10653.56 2366.10,10656.49 2366.50,10660.68"/>
    </edge>
    <edge id=":1324673521_7" function="internal">
        <lane id=":1324673521_7_0" index="0" disallow="pedestrian bicycle tram rail_urban rail rail_electric rail_fast ship" speed="3.65" length="4.67" shape="2362.45,10651.47 2363.73,10652.12 2364.22,10652.87 2363.91,10653.71 2362.81,10654.64"/>
    </edge>
    <edge id=":1412821427_0" function="internal">
        <lane id=":1412821427_0_0" index="0" disallow="pedestrian tram rail_urban rail rail_electric rail_fast ship" speed="6.05" length="9.07" shape="7202.90,6280.31 7200.66,6279.03 7198.71,6278.91 7197.04,6279.94 7195.67,6282.12"/>
    </edge>
    <edge id=":1412821427_1" function="internal">
        <lane id=":1412821427_1_0" index="0" disallow="pedestrian tram rail_urban rail rail_electric rail_fast ship" speed="13.89" length="14.50" shape="7202.90,6280.31 7191.78,6271.01"/>
    </edge>
    <edge id=":1412821427_2" function="internal">
        <lane id=":1412821427_2_0" index="0" disallow="pedestrian tram rail_urban rail rail_electric rail_fast ship" speed="3.65" length="1.44" shape="7202.90,6280.31 7202.44,6278.94"/>
    </edge>
    <edge id=":1412821427_9" function="internal">
        <lane id=":1412821427_9_0" index="0" disallow="pedestrian tram rail_urban rail rail_electric rail_fast ship" speed="3.65" length="3.23" shape="7202.44,6278.94 7202.62,6278.06 7203.42,6277.67 7204.86,6277.78"/>
    </edge>
    <edge id=":1412821427_3" function="internal">
        <lane id=":1412821427_3_0" index="0" disallow="pedestrian tram rail_urban rail rail_electric rail_fast ship" speed="13.89" length="14.23" shape="7193.94,6268.66 7204.86,6277.78"/>
    </edge>
    <edge id=":1412821427_4" function="internal">
        <lane id=":1412821427_4_0" index="0" disallow="pedestrian tram rail_urban rail rail_electric rail_fast ship" speed="9.26" length="3.49" shape="7193.94,6268.66 7196.11,6271.39"/>
    </edge>
    <edge id=":1412821427_5" function="internal">
        <lane id=":1412821427_5_0" index="0" disallow="pedestrian tram rail_urban rail rail_electric rail_fast ship" speed="3.65" length="1.44" shape="7193.94,6268.66 7194.28,6270.06"/>
    </edge>
    <edge id=":1412821427_10" function="internal">
        <lane id=":1412821427_10_0" index="0" disallow="pedestrian tram rail_urban rail rail_electric rail_fast ship" speed="9.26" length="11.10" shape="7196.11,6271.39 7197.12,6274.55 7196.97,6278.12 7195.67,6282.12"/>
    </edge>
    <edge id=":1412821427_11" function="internal">
        <lane id=":1412821427_11_0" index="0" disallow="pedestrian tram rail_urban rail rail_electric rail_fast ship" speed="3.65" length="3.23" shape="7194.28,6270.06 7194.04,6270.92 7193.20,6271.24 7191.78,6271.01"/>
    </edge>
    <edge id=":1412821427_6" function="internal">
        <lane id=":1412821427_6_0" index="0" disallow="pedestrian tram rail_urban rail rail_electric rail_fast ship" speed="7.96" length="10.57" shape="7192.75,6280.82 7193.74,6277.83 7193.92,6275.21 7193.26,6272.93 7191.78,6271.01"/>
    </edge>
    <edge id=":1412821427_7" function="internal">
        <lane id=":1412821427_7_0" index="0" disallow="pedestrian tram rail_urban rail rail_electric rail_fast ship" speed="7.64" length="15.19" shape="7192.75,6280.82 7195.05,6277.17 7197.84,6275.44 7201.11,6275.65 7204.86,6277.78"/>
    </edge>
    <edge id=":1412821427_8" function="internal">
        <lane id=":1412821427_8_0" index="0" disallow="pedestrian tram rail_urban rail rail_electric rail_fast ship" speed="3.65" length="4.67" shape="7192.75,6280.82 7193.97,6280.05 7194.86,6280.01 7195.43,6280.70 7195.67,6282.12"/>
    </edge>
    <edge id=":1726424632_0" function="internal">
        <lane id=":1726424632_0_0" index="0" disallow="pedestrian tram rail_urban rail rail_electric rail_fast ship" speed="3.65" length="4.67" shape="8917.59,8056.56 8916.29,8057.19 8915.40,8057.13 8914.91,8056.38 8914.83,8054.94"/>
    </edge>
    <edge id=":1756317090_0" function="internal">
        <lane id=":1756317090_0_0" index="0" disallow="pedestrian bicycle tram rail_urban rail rail_electric rail_fast ship" speed="13.89" length="8.62" shape="2278.90,7246.80 2279.69,7249.25 2280.95,7250.72 2282.17,7252.19 2282.85,7254.65"/>
        <lane id=":1756317090_0_1" index="1" disallow="pedestrian bicycle tram rail_urban rail rail_electric rail_fast ship" speed="13.89" length="8.62" shape="2278.90,7246.80 2279.66,7254.88"/>
        <lane id=":1756317090_0_2" index="2" disallow="pedestrian bicycle tram rail_urban rail rail_electric rail_fast ship" speed="13.89" length="8.62" shape="2278.90,7246.80 2278.69,7249.31 2277.76,7250.95 2276.79,7252.59 2276.47,7255.11"/>
        <lane id=":1756317090_0_3" index="3" disallow="pedestrian bicycle tram rail_urban rail rail_electric rail_fast ship" speed="13.89" length="8.62" shape="2275.72,7247.17 2275.51,7249.63 2274.57,7251.25 2273.60,7252.86 2273.28,7255.34"/>
        <lane id=":1756317090_0_4" index="4" disallow="pedestrian bicycle tram rail_urban rail rail_electric rail_fast ship" speed="13.89" length="8.62" shape="2272.54,7247.54 2272.32,7249.96 2271.38,7251.55 2270.41,7253.13 2270.09,7255.56"/>
        <lane id=":1756317090_0_5" index="5" disallow="pedestrian bicycle tram rail_urban rail rail_electric rail_fast ship" speed="13.89" length="8.62" shape="2269.37,7247.91 2269.14,7250.29 2268.20,7251.85 2267.22,7253.40 2266.89,7255.79"/>
    </edge>
    <edge id=":1775164322_0" function="internal">
        <lane id=":1775164322_0_0" index="0" disallow="pedestrian tram rail_urban rail rail_electric rail_fast ship" speed="16.67" length="15.69" shape="2802.39,7695.61 2801.89,7679.92"/>
    </edge>
    <edge id=":1775164322_1" function="internal">
        <lane id=":1775164322_1_0" index="0" disallow="pedestrian tram rail_urban rail rail_electric rail_fast ship" speed="3.65" length="1.44" shape="2802.39,7695.61 2803.15,7694.38"/>
    </edge>
    <edge id=":1775164322_6" function="internal">
        <lane id=":1775164322_6_0" index="0" disallow="pedestrian tram rail_urban rail rail_electric rail_fast ship" speed="3.65" length="3.23" shape="2803.15,7694.38 2803.93,7693.96 2804.75,7694.33 2805.58,7695.51"/>
    </edge>
    <edge id=":1775164322_2" function="internal">
        <lane id=":1775164322_2_0" index="0" disallow="pedestrian tram rail_urban rail rail_electric rail_fast ship" speed="5.60" length="9.32" shape="2811.30,7692.21 2808.72,7691.03 2806.90,7691.19 2805.86,7692.68 2805.58,7695.51"/>
    </edge>
    <edge id=":1775164322_3" function="internal">
        <lane id=":1775164322_3_0" index="0" disallow="pedestrian tram rail_urban rail rail_electric rail_fast ship" speed="10.86" length="14.89" shape="2812.99,7689.50 2808.17,7686.33 2804.71,7683.68 2802.62,7681.54 2801.89,7679.92"/>
    </edge>
    <edge id=":1775164322_4" function="internal">
        <lane id=":1775164322_4_0" index="0" disallow="pedestrian tram rail_urban rail rail_electric rail_fast ship" speed="16.67" length="15.69" shape="2805.09,7679.82 2805.58,7695.51"/>
    </edge>
    <edge id=":1775164322_5" function="internal">
        <lane id=":1775164322_5_0" index="0" disallow="pedestrian tram rail_urban rail rail_electric rail_fast ship" speed="3.65" length="1.44" shape="2805.09,7679.82 2804.33,7681.05"/>
    </edge>
    <edge id=":1775164322_7" function="internal">