<?xml version="1.0" encoding="UTF-8"?>

<!-- generated on 2023-07-11 10:53:53.553013 by osmWebWizard.py v1_15_0+0002-e6790248698
<configuration>
    <end value="6000"/>
    <fringe-factor value="1"/>
    <insertion-density value="10.0"/>
    <max-distance value="2000.0"/>
    <net-file value="C:\Users\User\Documents\Sumo\tools\2023-07-11-10-53-40\osm.net.xml.gz"/>
    <pedestrians value="True"/>
    <route-file value="C:\Users\User\Documents\Sumo\tools\2023-07-11-10-53-40\osm.pedestrian.rou.xml"/>
    <output-trip-file value="C:\Users\User\Documents\Sumo\tools\2023-07-11-10-53-40\osm.pedestrian.trips.xml"/>
    <prefix value="ped"/>
    <vehicle-class value="pedestrian"/>
</configuration>
-->

<routes xmlns:xsi="http://www.w3.org/2001/XMLSchema-instance" xsi:noNamespaceSchemaLocation="http://sumo.dlr.de/xsd/routes_file.xsd">
    <vType id="ped_pedestrian" vClass="pedestrian"/>
    <person id="ped0" depart="0.00" type="ped_pedestrian">
        <walk from="49743607#0" to="485053285#0"/>
    </person>
    <person id="ped1" depart="33.30" type="ped_pedestrian">
        <walk from="51826550#0" to="-40864059#5"/>
    </person>
    <person id="ped2" depart="66.59" type="ped_pedestrian">
        <walk from="-49743607#4" to="-831125580"/>
    </person>
    <person id="ped3" depart="99.89" type="ped_pedestrian">
        <walk from="51548270#0" to="-146588339#4"/>
    </person>
    <person id="ped4" depart="133.18" type="ped_pedestrian">
        <walk from="74476994#0" to="-51826550#6"/>
    </person>
    <person id="ped5" depart="166.48" type="ped_pedestrian">
        <walk from="-40864059#5" to="-45783768#6"/>
    </person>
    <person id="ped6" depart="199.77" type="ped_pedestrian">
        <walk from="-40864059#5" to="-49743607#4"/>
    </person>
    <person id="ped7" depart="233.07" type="ped_pedestrian">
        <walk from="45783768#0" to="-51826550#6"/>
    </person>
    <person id="ped8" depart="266.37" type="ped_pedestrian">
        <walk from="-485053285#2" to="49743607#0"/>
    </person>
    <person id="ped9" depart="299.66" type="ped_pedestrian">
        <walk from="74476994#0" to="45783768#0"/>
    </person>
    <person id="ped10" depart="332.96" type="ped_pedestrian">
        <walk from="51702404#0" to="51548270#0"/>
    </person>
    <person id="ped11" depart="366.25" type="ped_pedestrian">
        <walk from="-51702404#11" to="-51548270#7"/>
    </person>
    <person id="ped12" depart="399.55" type="ped_pedestrian">
        <walk from="-51548270#7" to="-51548270#7"/>
    </person>
    <person id="ped13" depart="432.84" type="ped_pedestrian">
        <walk from="146588338#0" to="-51548270#7"/>
    </person>
    <person id="ped14" depart="466.14" type="ped_pedestrian">
        <walk from="74476994#0" to="-831125580"/>
    </person>
    <person id="ped15" depart="499.44" type="ped_pedestrian">
        <walk from="-45783768#6" to="45783768#0"/>
    </person>
    <person id="ped16" depart="532.73" type="ped_pedestrian">
        <walk from="74476994#0" to="51826550#0"/>
    </person>
    <person id="ped17" depart="566.03" type="ped_pedestrian">
        <walk from="-45783768#6" to="-74476994#7"/>
    </person>
    <person id="ped18" depart="599.32" type="ped_pedestrian">
        <walk from="-74476994#7" to="74476994#0"/>
    </person>
    <person id="ped19" depart="632.62" type="ped_pedestrian">
        <walk from="51548270#0" to="146588338#0"/>
    </person>
    <person id="ped20" depart="665.91" type="ped_pedestrian">
        <walk from="51548270#0" to="146588338#0"/>
    </person>
    <person id="ped21" depart="699.21" type="ped_pedestrian">
        <walk from="-40864059#5" to="-831125580"/>
    </person>
    <person id="ped22" depart="732.51" type="ped_pedestrian">
        <walk from="-40864059#5" to="49743607#0"/>
    </person>
    <person id="ped23" depart="765.80" type="ped_pedestrian">
        <walk from="74476994#0" to="45783768#0"/>
    </person>
    <person id="ped24" depart="799.10" type="ped_pedestrian">
        <walk from="-74476994#7" to="-831125580"/>
    </person>
    <person id="ped25" depart="832.39" type="ped_pedestrian">
        <walk from="-45783768#6" to="-49743607#4"/>
    </person>
    <person id="ped26" depart="865.69" type="ped_pedestrian">
        <walk from="-49743607#4" to="-49743607#4"/>
    </person>
    <person id="ped27" depart="898.98" type="ped_pedestrian">
        <walk from="-40864059#5" to="45783768#0"/>
    </person>
    <person id="ped28" depart="932.28" type="ped_pedestrian">
        <walk from="51826550#0" to="-40864059#5"/>
    </person>
    <person id="ped29" depart="965.58" type="ped_pedestrian">
        <walk from="-49743607#4" to="485053285#0"/>
    </person>
    <person id="ped30" depart="998.87" type="ped_pedestrian">
        <walk from="-49743607#4" to="-45783768#6"/>
    </person>
    <person id="ped31" depart="1032.17" type="ped_pedestrian">
        <walk from="-45783768#6" to="-74476994#7"/>
    </person>
    <person id="ped32" depart="1065.46" type="ped_pedestrian">
        <walk from="49743607#0" to="485053285#0"/>
    </person>
    <person id="ped33" depart="1098.76" type="ped_pedestrian">
        <walk from="74476994#0" to="-45783768#6"/>
    </person>
    <person id="ped34" depart="1132.05" type="ped_pedestrian">
        <walk from="-74476994#7" to="51826550#0"/>
    </person>
    <person id="ped35" depart="1165.35" type="ped_pedestrian">
        <walk from="-831125580" to="-49743607#4"/>
    </person>
    <person id="ped36" depart="1198.65" type="ped_pedestrian">
        <walk from="-51826550#6" to="74476994#0"/>
    </person>
    <person id="ped37" depart="1231.94" type="ped_pedestrian">
        <walk from="-51548270#7" to="51548270#0"/>
    </person>
    <person id="ped38" depart="1265.24" type="ped_pedestrian">
        <walk from="74476994#0" to="74476994#0"/>
    </person>
    <person id="ped39" depart="1298.53" type="ped_pedestrian">
        <walk from="-485053285#2" to="74476994#0"/>
    </person>
    <person id="ped40" depart="1331.83" type="ped_pedestrian">
        <walk from="-49743607#4" to="-45783768#6"/>
    </person>
    <person id="ped41" depart="1365.12" type="ped_pedestrian">
        <walk from="-49743607#4" to="49743607#0"/>
    </person>
    <person id="ped42" depart="1398.42" type="ped_pedestrian">
        <walk from="-40864059#5" to="-74476994#7"/>
    </person>
    <person id="ped43" depart="1431.72" type="ped_pedestrian">
        <walk from="74476994#0" to="74476994#0"/>
    </person>
    <person id="ped44" depart="1465.01" type="ped_pedestrian">
        <walk from="-40864059#5" to="-49743607#4"/>
    </person>
    <person id="ped45" depart="1498.31" type="ped_pedestrian">
        <walk from="51826550#0" to="51826550#0"/>
    </person>
    <person id="ped46" depart="1531.60" type="ped_pedestrian">
        <walk from="51702404#0" to="-51702404#11"/>
    </person>
    <person id="ped47" depart="1564.90" type="ped_pedestrian">
        <walk from="-45783768#6" to="-45783768#6"/>
    </person>
    <person id="ped48" depart="1598.19" type="ped_pedestrian">
        <walk from="-51548270#7" to="146588339#0"/>
    </person>
    <person id="ped49" depart="1631.49" type="ped_pedestrian">
        <walk from="49743607#0" to="-49743607#4"/>
    </person>
    <person id="ped50" depart="1664.79" type="ped_pedestrian">
        <walk from="-146588339#4" to="51548270#0"/>
    </person>
    <person id="ped51" depart="1698.08" type="ped_pedestrian">
        <walk from="-40864059#5" to="51826550#0"/>
    </person>
    <person id="ped52" depart="1731.38" type="ped_pedestrian">
        <walk from="51826550#0" to="74476994#0"/>
    </person>
    <person id="ped53" depart="1764.67" type="ped_pedestrian">
        <walk from="51702404#0" to="-51548270#7"/>
    </person>
    <person id="ped54" depart="1797.97" type="ped_pedestrian">
        <walk from="51826550#0" to="51826550#0"/>
    </person>
    <person id="ped55" depart="1831.26" type="ped_pedestrian">
        <walk from="74476994#0" to="-485053285#2"/>
    </person>
    <person id="ped56" depart="1864.56" type="ped_pedestrian">
        <walk from="-45783768#6" to="-74476994#7"/>
    </person>
    <person id="ped57" depart="1897.86" type="ped_pedestrian">
        <walk from="49743607#0" to="485053285#0"/>
    </person>
    <person id="ped58" depart="1931.15" type="ped_pedestrian">
        <walk from="-51826550#6" to="-40864059#5"/>
    </person>
    <person id="ped59" depart="1964.45" type="ped_pedestrian">
        <walk from="-51702404#11" to="51702404#0"/>
    </person>
    <person id="ped60" depart="1997.74" type="ped_pedestrian">
        <walk from="45783768#0" to="-74476994#7"/>
    </person>
    <person id="ped61" depart="2031.04" type="ped_pedestrian">
        <walk from="-74476994#7" to="51826550#0"/>
    </person>
    <person id="ped62" depart="2064.33" type="ped_pedestrian">
        <walk from="-40864059#5" to="-831125580"/>
    </person>
    <person id="ped63" depart="2097.63" type="ped_pedestrian">
        <walk from="45783768#0" to="-51826550#6"/>
    </person>
    <person id="ped64" depart="2130.93" type="ped_pedestrian">
        <walk from="485053285#0" to="-49743607#4"/>
    </person>
    <person id="ped65" depart="2164.22" type="ped_pedestrian">
        <walk from="-49743607#4" to="485053285#0"/>
    </person>
    <person id="ped66" depart="2197.52" type="ped_pedestrian">
        <walk from="-485053285#2" to="74476994#0"/>
    </person>
    <person id="ped67" depart="2230.81" type="ped_pedestrian">
        <walk from="-831125580" to="-40864059#5"/>
    </person>
    <person id="ped68" depart="2264.11" type="ped_pedestrian">
        <walk from="-51548270#7" to="51702404#0"/>
    </person>
    <person id="ped69" depart="2297.40" type="ped_pedestrian">
        <walk from="485053285#0" to="74476994#0"/>
    </person>
    <person id="ped70" depart="2330.70" type="ped_pedestrian">
        <walk from="49743607#0" to="-831125580"/>
    </person>
    <person id="ped71" depart="2364.00" type="ped_pedestrian">
        <walk from="-51548270#7" to="-51702404#11"/>
    </person>
    <person id="ped72" depart="2397.29" type="ped_pedestrian">
        <walk from="-49743607#4" to="485053285#0"/>
    </person>
    <person id="ped73" depart="2430.59" type="ped_pedestrian">
        <walk from="-519034176#2" to="519034176#0"/>
    </person>
    <person id="ped74" depart="2463.88" type="ped_pedestrian">
        <walk from="51702404#0" to="51548270#0"/>
    </person>
    <person id="ped75" depart="2497.18" type="ped_pedestrian">
        <walk from="146588338#0" to="146588339#0"/>
    </person>
    <person id="ped76" depart="2530.47" type="ped_pedestrian">
        <walk from="-49743607#4" to="-49743607#4"/>
    </person>
    <person id="ped77" depart="2563.77" type="ped_pedestrian">
        <walk from="-74476994#7" to="-45783768#6"/>
    </person>
    <person id="ped78" depart="2597.07" type="ped_pedestrian">
        <walk from="-45783768#6" to="-74476994#7"/>
    </person>
    <person id="ped79" depart="2630.36" type="ped_pedestrian">
        <walk from="-40864059#5" to="-51826550#6"/>
    </person>
    <person id="ped80" depart="2663.66" type="ped_pedestrian">
        <walk from="-146588339#4" to="146588338#0"/>
    </person>
    <person id="ped81" depart="2696.95" type="ped_pedestrian">
        <walk from="74476994#0" to="-51826550#6"/>
    </person>
    <person id="ped82" depart="2730.25" type="ped_pedestrian">
        <walk from="45783768#0" to="49743607#0"/>
    </person>
    <person id="ped83" depart="2763.54" type="ped_pedestrian">
        <walk from="-45783768#6" to="485053285#0"/>
    </person>
    <person id="ped84" depart="2796.84" type="ped_pedestrian">
        <walk from="49743607#0" to="-45783768#6"/>
    </person>
    <person id="ped85" depart="2830.14" type="ped_pedestrian">
        <walk from="49743607#0" to="-40864059#5"/>
    </person>
    <person id="ped86" depart="2863.43" type="ped_pedestrian">
        <walk from="-45783768#6" to="74476994#0"/>
    </person>
    <person id="ped87" depart="2896.73" type="ped_pedestrian">
        <walk from="-831125580" to="-51826550#6"/>
    </person>
    <person id="ped88" depart="2930.02" type="ped_pedestrian">
        <walk from="51702404#0" to="51702404#0"/>
    </person>
    <person id="ped89" depart="2963.32" type="ped_pedestrian">
        <walk from="-45783768#6" to="74476994#0"/>
    </person>
    <person id="ped90" depart="2996.61" type="ped_pedestrian">
        <walk from="49743607#0" to="74476994#0"/>
    </person>
    <person id="ped91" depart="3029.91" type="ped_pedestrian">
        <walk from="-51548270#7" to="51548270#0"/>
    </person>
    <person id="ped92" depart="3063.21" type="ped_pedestrian">
        <walk from="-51548270#7" to="51702404#0"/>
    </person>
    <person id="ped93" depart="3096.50" type="ped_pedestrian">
        <walk from="-51826550#6" to="51826550#0"/>
    </person>
    <person id="ped94" depart="3129.80" type="ped_pedestrian">
        <walk from="-40864059#5" to="49743607#0"/>
    </person>
    <person id="ped95" depart="3163.09" type="ped_pedestrian">
        <walk from="-831125580" to="49743607#0"/>
    </person>
    <person id="ped96" depart="3196.39" type="ped_pedestrian">
        <walk from="-40864059#5" to="-49743607#4"/>
    </person>
    <person id="ped97" depart="3229.68" type="ped_pedestrian">
        <walk from="-49743607#4" to="-45783768#6"/>
    </person>
    <person id="ped98" depart="3262.98" type="ped_pedestrian">
        <walk from="146588338#0" to="51548270#0"/>
    </person>
    <person id="ped99" depart="3296.28" type="ped_pedestrian">
        <walk from="-485053285#2" to="-49743607#4"/>
    </person>
    <person id="ped100" depart="3329.57" type="ped_pedestrian">
        <walk from="-831125580" to="49743607#0"/>
    </person>
    <person id="ped101" depart="3362.87" type="ped_pedestrian">
        <walk from="-49743607#4" to="-49743607#4"/>
    </person>
    <person id="ped102" depart="3396.16" type="ped_pedestrian">
        <walk from="146588338#0" to="-51548270#7"/>
    </person>
    <person id="ped103" depart="3429.46" type="ped_pedestrian">
        <walk from="485053285#0" to="-45783768#6"/>
    </person>
    <person id="ped104" depart="3462.76" type="ped_pedestrian">
        <walk from="51826550#0" to="-831125580"/>
    </person>
    <person id="ped105" depart="3496.05" type="ped_pedestrian">
        <walk from="-74476994#7" to="-74476994#7"/>
    </person>
    <person id="ped106" depart="3529.35" type="ped_pedestrian">
        <walk from="-40864059#5" to="45783768#0"/>
    </person>
    <person id="ped107" depart="3562.64" type="ped_pedestrian">
        <walk from="74476994#0" to="-45783768#6"/>
    </person>
    <person id="ped108" depart="3595.94" type="ped_pedestrian">
        <walk from="51548270#0" to="146588339#0"/>
    </person>
    <person id="ped109" depart="3629.23" type="ped_pedestrian">
        <walk from="-831125580" to="-74476994#7"/>
    </person>
    <person id="ped110" depart="3662.53" type="ped_pedestrian">
        <walk from="-74476994#7" to="51826550#0"/>
    </person>
    <person id="ped111" depart="3695.83" type="ped_pedestrian">
        <walk from="-49743607#4" to="-49743607#4"/>
    </person>
    <person id="ped112" depart="3729.12" type="ped_pedestrian">
        <walk from="-49743607#4" to="485053285#0"/>
    </person>
    <person id="ped113" depart="3762.42" type="ped_pedestrian">
        <walk from="485053285#0" to="485053285#0"/>
    </person>
    <person id="ped114" depart="3795.71" type="ped_pedestrian">
        <walk from="-831125580" to="-40864059#5"/>
    </person>
    <person id="ped115" depart="3829.01" type="ped_pedestrian">
        <walk from="-51702404#11" to="-51548270#7"/>
    </person>
    <person id="ped116" depart="3862.30" type="ped_pedestrian">
        <walk from="-40864059#5" to="74476994#0"/>
    </person>
    <person id="ped117" depart="3895.60" type="ped_pedestrian">
        <walk from="-74476994#7" to="45783768#0"/>
    </person>
    <person id="ped118" depart="3928.90" type="ped_pedestrian">
        <walk from="-831125580" to="-40864059#5"/>
    </person>
    <person id="ped119" depart="3962.19" type="ped_pedestrian">
        <walk from="74476994#0" to="45783768#0"/>
    </person>
    <person id="ped120" depart="3995.49" type="ped_pedestrian">
        <walk from="49743607#0" to="45783768#0"/>
    </person>
    <person id="ped121" depart="4028.78" type="ped_pedestrian">
        <walk from="49743607#0" to="-49743607#4"/>
    </person>
    <person id="ped122" depart="4062.08" type="ped_pedestrian">
        <walk from="-45783768#6" to="74476994#0"/>
    </person>
    <person id="ped123" depart="4095.37" type="ped_pedestrian">
        <walk from="146588339#0" to="-51548270#7"/>
    </person>
    <person id="ped124" depart="4128.67" type="ped_pedestrian">
        <walk from="-74476994#7" to="-45783768#6"/>
    </person>
    <person id="ped125" depart="4161.97" type="ped_pedestrian">
        <walk from="49743607#0" to="-831125580"/>
    </person>
    <person id="ped126" depart="4195.26" type="ped_pedestrian">
        <walk from="-51548270#7" to="51702404#0"/>
    </person>
    <person id="ped127" depart="4228.56" type="ped_pedestrian">
        <walk from="51826550#0" to="51826550#0"/>
    </person>
    <person id="ped128" depart="4261.85" type="ped_pedestrian">
        <walk from="-51548270#7" to="51548270#0"/>
    </person>
    <person id="ped129" depart="4295.15" type="ped_pedestrian">
        <walk from="-519034176#2" to="519034176#0"/>
    </person>
    <person id="ped130" depart="4328.44" type="ped_pedestrian">
        <walk from="-51548270#7" to="-51702404#11"/>
    </person>
    <person id="ped131" depart="4361.74" type="ped_pedestrian">
        <walk from="146588338#0" to="146588338#0"/>
    </person>
    <person id="ped132" depart="4395.04" type="ped_pedestrian">
        <walk from="-485053285#2" to="485053285#0"/>
    </person>
    <person id="ped133" depart="4428.33" type="ped_pedestrian">
        <walk from="51548270#0" to="-146588339#4"/>
    </person>
    <person id="ped134" depart="4461.63" type="ped_pedestrian">
        <walk from="49743607#0" to="485053285#0"/>
    </person>
    <person id="ped135" depart="4494.92" type="ped_pedestrian">
        <walk from="74476994#0" to="-831125580"/>
    </person>
    <person id="ped136" depart="4528.22" type="ped_pedestrian">
        <walk from="51826550#0" to="-74476994#7"/>
    </person>
    <person id="ped137" depart="4561.51" type="ped_pedestrian">
        <walk from="-74476994#7" to="74476994#0"/>
    </person>
    <person id="ped138" depart="4594.81" type="ped_pedestrian">
        <walk from="49743607#0" to="49743607#0"/>
    </person>
    <person id="ped139" depart="4628.11" type="ped_pedestrian">
        <walk from="-40864059#5" to="45783768#0"/>
    </person>
    <person id="ped140" depart="4661.40" type="ped_pedestrian">
        <walk from="-45783768#6" to="45783768#0"/>
    </person>
    <person id="ped141" depart="4694.70" type="ped_pedestrian">
        <walk from="51826550#0" to="-74476994#7"/>
    </person>
    <person id="ped142" depart="4727.99" type="ped_pedestrian">
        <walk from="-146588339#4" to="51548270#0"/>
    </person>
    <person id="ped143" depart="4761.29" type="ped_pedestrian">
        <walk from="146588338#0" to="51548270#0"/>
    </person>
    <person id="ped144" depart="4794.58" type="ped_pedestrian">
        <walk from="51826550#0" to="45783768#0"/>
    </person>
    <person id="ped145" depart="4827.88" type="ped_pedestrian">
        <walk from="-51548270#7" to="-51548270#7"/>
    </person>
    <person id="ped146" depart="4861.18" type="ped_pedestrian">
        <walk from="-146588339#4" to="51548270#0"/>
    </person>
    <person id="ped147" depart="4894.47" type="ped_pedestrian">
        <walk from="-51548270#7" to="51702404#0"/>
    </person>
    <person id="ped148" depart="4927.77" type="ped_pedestrian">
        <walk from="-831125580" to="-49743607#4"/>
    </person>
    <person id="ped149" depart="4961.06" type="ped_pedestrian">
        <walk from="146588339#0" to="146588339#0"/>
    </person>
    <person id="ped150" depart="4994.36" type="ped_pedestrian">
        <walk from="74476994#0" to="45783768#0"/>
    </person>
    <person id="ped151" depart="5027.65" type="ped_pedestrian">
        <walk from="-51548270#7" to="146588338#0"/>
    </person>
    <person id="ped152" depart="5060.95" type="ped_pedestrian">
        <walk from="485053285#0" to="49743607#0"/>
    </person>
    <person id="ped153" depart="5094.25" type="ped_pedestrian">
        <walk from="-831125580" to="51826550#0"/>
    </person>
    <person id="ped154" depart="5127.54" type="ped_pedestrian">
        <walk from="45783768#0" to="45783768#0"/>
    </person>
    <person id="ped155" depart="5160.84" type="ped_pedestrian">
        <walk from="485053285#0" to="49743607#0"/>
    </person>
    <person id="ped156" depart="5194.13" type="ped_pedestrian">
        <walk from="45783768#0" to="51826550#0"/>
    </person>
    <person id="ped157" depart="5227.43" type="ped_pedestrian">
        <walk from="49743607#0" to="-40864059#5"/>
    </person>
    <person id="ped158" depart="5260.72" type="ped_pedestrian">
        <walk from="51702404#0" to="-51548270#7"/>
    </person>
    <person id="ped159" depart="5294.02" type="ped_pedestrian">
        <walk from="-51826550#6" to="-45783768#6"/>
    </person>
    <person id="ped160" depart="5327.32" type="ped_pedestrian">
        <walk from="74476994#0" to="-45783768#6"/>
    </person>
    <person id="ped161" depart="5360.61" type="ped_pedestrian">
        <walk from="74476994#0" to="51826550#0"/>
    </person>
    <person id="ped162" depart="5393.91" type="ped_pedestrian">
        <walk from="49743607#0" to="74476994#0"/>
    </person>
    <person id="ped163" depart="5427.20" type="ped_pedestrian">
        <walk from="-146588339#4" to="146588338#0"/>
    </person>
    <person id="ped164" depart="5460.50" type="ped_pedestrian">
        <walk from="-45783768#6" to="-49743607#4"/>
    </person>
    <person id="ped165" depart="5493.79" type="ped_pedestrian">
        <walk from="-49743607#4" to="-40864059#5"/>
    </person>
    <person id="ped166" depart="5527.09" type="ped_pedestrian">
        <walk from="-45783768#6" to="51826550#0"/>
    </person>
    <person id="ped167" depart="5560.39" type="ped_pedestrian">
        <walk from="-45783768#6" to="-74476994#7"/>
    </person>
    <person id="ped168" depart="5593.68" type="ped_pedestrian">
        <walk from="485053285#0" to="49743607#0"/>
    </person>
    <person id="ped169" depart="5626.98" type="ped_pedestrian">
        <walk from="519034176#0" to="-519034176#2"/>
    </person>
    <person id="ped170" depart="5660.27" type="ped_pedestrian">
        <walk from="49743607#0" to="-485053285#2"/>
    </person>
    <person id="ped171" depart="5693.57" type="ped_pedestrian">
        <walk from="-51826550#6" to="-74476994#7"/>
    </person>
    <person id="ped172" depart="5726.86" type="ped_pedestrian">
        <walk from="-45783768#6" to="485053285#0"/>
    </person>
    <person id="ped173" depart="5760.16" type="ped_pedestrian">
        <walk from="45783768#0" to="45783768#0"/>
    </person>
    <person id="ped174" depart="5793.46" type="ped_pedestrian">
        <walk from="146588339#0" to="-146588339#4"/>
    </person>
    <person id="ped175" depart="5826.75" type="ped_pedestrian">
        <walk from="51548270#0" to="-51548270#7"/>
    </person>
    <person id="ped176" depart="5860.05" type="ped_pedestrian">
        <walk from="-49743607#4" to="-49743607#4"/>
    </person>
    <person id="ped177" depart="5893.34" type="ped_pedestrian">
        <walk from="-146588339#4" to="51548270#0"/>
    </person>
    <person id="ped178" depart="5926.64" type="ped_pedestrian">
        <walk from="49743607#0" to="-831125580"/>
    </person>
    <person id="ped179" depart="5959.93" type="ped_pedestrian">
        <walk from="-45783768#6" to="-831125580"/>
    </person>
    <person id="ped180" depart="5993.23" type="ped_pedestrian">
        <walk from="-831125580" to="-74476994#7"/>
    </person>
</routes>
