<?xml version="1.0" encoding="UTF-8"?>

<!-- generated on 2023-07-11 10:53:51.743714 by osmWebWizard.py v1_15_0+0002-e6790248698
<configuration>
    <end value="6000"/>
    <fringe-factor value="2"/>
    <fringe-start-attributes value="departSpeed=&quot;max&quot;"/>
    <insertion-density value="4.0"/>
    <max-distance value="1200.0"/>
    <net-file value="C:\Users\User\Documents\Sumo\tools\2023-07-11-10-53-40\osm.net.xml.gz"/>
    <remove-loops value="True"/>
    <route-file value="C:\Users\User\Documents\Sumo\tools\2023-07-11-10-53-40\osm.motorcycle.rou.xml"/>
    <trip-attributes value="departLane=&quot;best&quot;"/>
    <output-trip-file value="C:\Users\User\Documents\Sumo\tools\2023-07-11-10-53-40\osm.motorcycle.trips.xml"/>
    <prefix value="motorcycle"/>
    <validate value="True"/>
    <vclass value="motorcycle"/>
    <vehicle-class value="motorcycle"/>
</configuration>
-->

<!-- generated on 2023-07-11 10:53:51 by Eclipse SUMO duarouter Version 1.15.0
<configuration xmlns:xsi="http://www.w3.org/2001/XMLSchema-instance" xsi:noNamespaceSchemaLocation="http://sumo.dlr.de/xsd/duarouterConfiguration.xsd">

    <input>
        <net-file value="C:\Users\User\Documents\Sumo\tools\2023-07-11-10-53-40\osm.net.xml.gz"/>
        <route-files value="C:\Users\User\Documents\Sumo\tools\2023-07-11-10-53-40\osm.motorcycle.trips.xml"/>
    </input>

    <output>
        <output-file value="C:\Users\User\Documents\Sumo\tools\2023-07-11-10-53-40\osm.motorcycle.trips.xml.tmp"/>
        <alternatives-output value="NUL"/>
        <write-trips value="true"/>
    </output>

    <processing>
        <remove-loops value="true"/>
    </processing>

    <time>
        <begin value="0"/>
        <end value="6000"/>
    </time>

    <report>
        <no-warnings value="true"/>
        <ignore-errors value="true"/>
        <no-step-log value="true"/>
    </report>

</configuration>
-->

<routes xmlns:xsi="http://www.w3.org/2001/XMLSchema-instance" xsi:noNamespaceSchemaLocation="http://sumo.dlr.de/xsd/routes_file.xsd">
    <vType id="motorcycle_motorcycle" vClass="motorcycle"/>
    <trip id="motorcycle0" type="motorcycle_motorcycle" depart="0.00" departLane="best" from="485053287#13" to="48135949#0"/>
    <trip id="motorcycle1" type="motorcycle_motorcycle" depart="3.58" departLane="best" from="42243993#0" to="45786301#0"/>
    <trip id="motorcycle2" type="motorcycle_motorcycle" depart="7.15" departLane="best" from="-51818689#18" to="51272633#0"/>
    <trip id="motorcycle3" type="motorcycle_motorcycle" depart="10.73" departLane="best" from="559505746#0" to="-75978514#5"/>
    <trip id="motorcycle4" type="motorcycle_motorcycle" depart="14.30" departLane="best" from="134024021" to="-91009081"/>
    <trip id="motorcycle5" type="motorcycle_motorcycle" depart="17.88" departLane="best" from="521697218#0" to="45783768#0"/>
    <trip id="motorcycle6" type="motorcycle_motorcycle" depart="21.45" departLane="best" from="51270413#5" to="478638718#3"/>
    <trip id="motorcycle7" type="motorcycle_motorcycle" depart="25.03" departLane="best" from="93057745#2" to="459849643#0"/>
    <trip id="motorcycle8" type="motorcycle_motorcycle" depart="28.60" departLane="best" departSpeed="max" from="-49743607#4" to="-521697218#8"/>
    <trip id="motorcycle9" type="motorcycle_motorcycle" depart="32.18" departLane="best" from="-23328570#13" to="51270413#5"/>
    <trip id="motorcycle10" type="motorcycle_motorcycle" depart="35.75" departLane="best" from="23328567#0" to="-415418918#5"/>
    <trip id="motorcycle11" type="motorcycle_motorcycle" depart="39.33" departLane="best" from="49743610" to="197773683#4"/>
    <trip id="motorcycle12" type="motorcycle_motorcycle" depart="42.90" departLane="best" from="27478484#2-AddedOnRampEdge" to="45781461#0"/>
    <trip id="motorcycle13" type="motorcycle_motorcycle" depart="46.48" departLane="best" from="91999878#0" to="415418918#5"/>
    <trip id="motorcycle14" type="motorcycle_motorcycle" depart="50.05" departLane="best" from="-415418914#3" to="-74476994#7"/>
    <trip id="motorcycle15" type="motorcycle_motorcycle" depart="53.63" departLane="best" from="-485053287#11" to="-48135007"/>
    <trip id="motorcycle16" type="motorcycle_motorcycle" depart="57.20" departLane="best" from="-310175396" to="27207208#0"/>
    <trip id="motorcycle17" type="motorcycle_motorcycle" depart="60.78" departLane="best" departSpeed="max" from="51548270#0" to="303644452#0"/>
    <trip id="motorcycle18" type="motorcycle_motorcycle" depart="64.35" departLane="best" from="-51818689#10" to="86296553#6"/>
    <trip id="motorcycle19" type="motorcycle_motorcycle" depart="67.93" departLane="best" departSpeed="max" from="48135948#0" to="26175435#0"/>
    <trip id="motorcycle20" type="motorcycle_motorcycle" depart="71.50" departLane="best" from="-831144375#1" to="-95949158"/>
    <trip id="motorcycle21" type="motorcycle_motorcycle" depart="75.08" departLane="best" from="-86296553#5" to="-51548270#7"/>
    <trip id="motorcycle22" type="motorcycle_motorcycle" depart="78.65" departLane="best" from="-39542408#22" to="-51818689#10"/>
    <trip id="motorcycle23" type="motorcycle_motorcycle" depart="82.23" departLane="best" departSpeed="max" from="48135948#0" to="-197773382#8"/>
    <trip id="motorcycle24" type="motorcycle_motorcycle" depart="85.80" departLane="best" from="485053287#12" to="-91999878#6"/>
    <trip id="motorcycle25" type="motorcycle_motorcycle" depart="89.38" departLane="best" from="-48135948#9" to="-415418927"/>
    <trip id="motorcycle26" type="motorcycle_motorcycle" depart="92.95" departLane="best" from="146587943#5" to="-49743610"/>
    <trip id="motorcycle27" type="motorcycle_motorcycle" depart="96.53" departLane="best" from="92409486#0" to="27478484#0"/>
    <trip id="motorcycle28" type="motorcycle_motorcycle" depart="100.10" departLane="best" departSpeed="max" from="-310175396" to="-310175396"/>
    <trip id="motorcycle29" type="motorcycle_motorcycle" depart="103.68" departLane="best" from="146587942#5" to="-197773391#5"/>
    <trip id="motorcycle30" type="motorcycle_motorcycle" depart="107.25" departLane="best" from="197773683#0" to="-48135948#9"/>
    <trip id="motorcycle31" type="motorcycle_motorcycle" depart="110.83" departLane="best" from="-51271000#9" to="521706070#0"/>
    <trip id="motorcycle32" type="motorcycle_motorcycle" depart="114.40" departLane="best" from="117618466" to="55360071#0"/>
    <trip id="motorcycle33" type="motorcycle_motorcycle" depart="117.98" departLane="best" from="27478484#2" to="845110746"/>
    <trip id="motorcycle34" type="motorcycle_motorcycle" depart="121.55" departLane="best" from="-49743610" to="34922486#0"/>
    <trip id="motorcycle35" type="motorcycle_motorcycle" depart="125.13" departLane="best" from="45781497#0" to="-55353721"/>
    <trip id="motorcycle36" type="motorcycle_motorcycle" depart="128.70" departLane="best" from="23328567#0" to="485053286#0"/>
    <trip id="motorcycle37" type="motorcycle_motorcycle" depart="132.28" departLane="best" from="-559505781#5" to="559505745#3"/>
    <trip id="motorcycle38" type="motorcycle_motorcycle" depart="135.85" departLane="best" from="-27475288" to="95949167"/>
    <trip id="motorcycle39" type="motorcycle_motorcycle" depart="139.43" departLane="best" from="45781461#4" to="51748691#0"/>
    <trip id="motorcycle40" type="motorcycle_motorcycle" depart="143.00" departLane="best" from="207904727#0" to="23328568#0"/>
    <trip id="motorcycle41" type="motorcycle_motorcycle" depart="146.58" departLane="best" from="74476999#0" to="485053285#0"/>
    <trip id="motorcycle42" type="motorcycle_motorcycle" depart="150.15" departLane="best" from="-831144375#5" to="-831144375#1"/>
    <trip id="motorcycle43" type="motorcycle_motorcycle" depart="153.73" departLane="best" from="415418923#0" to="27478484#2-AddedOnRampEdge"/>
    <trip id="motorcycle44" type="motorcycle_motorcycle" depart="157.30" departLane="best" departSpeed="max" from="197773391#0" to="197773391#0"/>
    <trip id="motorcycle45" type="motorcycle_motorcycle" depart="160.88" departLane="best" departSpeed="max" from="-48161586#3" to="146587942#0"/>
    <trip id="motorcycle46" type="motorcycle_motorcycle" depart="164.45" departLane="best" from="-478638718#2" to="-51270413#4"/>
    <trip id="motorcycle47" type="motorcycle_motorcycle" depart="168.03" departLane="best" from="-415418914#3" to="45781461#4"/>
    <trip id="motorcycle48" type="motorcycle_motorcycle" depart="171.60" departLane="best" from="23328567#0" to="845110746"/>
    <trip id="motorcycle49" type="motorcycle_motorcycle" depart="175.18" departLane="best" from="45781497#5" to="415418918#5"/>
    <trip id="motorcycle50" type="motorcycle_motorcycle" depart="178.75" departLane="best" from="415418914#0" to="-23328567#1"/>
    <trip id="motorcycle51" type="motorcycle_motorcycle" depart="182.33" departLane="best" from="86296553#0" to="146588153#0"/>
    <trip id="motorcycle52" type="motorcycle_motorcycle" depart="185.91" departLane="best" from="-485053287#11" to="48162105"/>
    <trip id="motorcycle53" type="motorcycle_motorcycle" depart="189.48" departLane="best" from="-86296553#12" to="478638718#3"/>
    <trip id="motorcycle54" type="motorcycle_motorcycle" depart="193.06" departLane="best" from="146587943#11" to="146587942#8"/>
    <trip id="motorcycle55" type="motorcycle_motorcycle" depart="196.63" departLane="best" from="23328567#0" to="23328567#0"/>
    <trip id="motorcycle56" type="motorcycle_motorcycle" depart="200.21" departLane="best" from="-29231523#4" to="1059305957#0"/>
    <trip id="motorcycle57" type="motorcycle_motorcycle" depart="203.78" departLane="best" departSpeed="max" from="-51748691#1" to="49743610"/>
    <trip id="motorcycle58" type="motorcycle_motorcycle" depart="207.36" departLane="best" from="-91999878#1" to="-91999878#1"/>
    <trip id="motorcycle59" type="motorcycle_motorcycle" depart="210.93" departLane="best" from="45781461#0" to="-26175435#8"/>
    <trip id="motorcycle60" type="motorcycle_motorcycle" depart="214.51" departLane="best" from="51272618#0" to="-86849761#1"/>
    <trip id="motorcycle61" type="motorcycle_motorcycle" depart="218.08" departLane="best" from="-310175395#2" to="519034176#0"/>
    <trip id="motorcycle62" type="motorcycle_motorcycle" depart="221.66" departLane="best" from="27478484#0" to="27478484#0"/>
    <trip id="motorcycle63" type="motorcycle_motorcycle" depart="225.23" departLane="best" from="1101953228#0" to="-27475288"/>
    <trip id="motorcycle64" type="motorcycle_motorcycle" depart="228.81" departLane="best" from="415418918#5" to="-95949158"/>
    <trip id="motorcycle65" type="motorcycle_motorcycle" depart="232.38" departLane="best" departSpeed="max" from="86127790#0" to="-86127790#2"/>
    <trip id="motorcycle66" type="motorcycle_motorcycle" depart="235.96" departLane="best" from="-42243993#5" to="-146607495#3"/>
    <trip id="motorcycle67" type="motorcycle_motorcycle" depart="239.53" departLane="best" from="158634332#0" to="-91375465#32"/>
    <trip id="motorcycle68" type="motorcycle_motorcycle" depart="243.11" departLane="best" from="91999878#0" to="51748691#0"/>
    <trip id="motorcycle69" type="motorcycle_motorcycle" depart="246.68" departLane="best" from="415418923#3" to="95949167"/>
    <trip id="motorcycle70" type="motorcycle_motorcycle" depart="250.26" departLane="best" from="-485053286#2" to="27478484#2"/>
    <trip id="motorcycle71" type="motorcycle_motorcycle" depart="253.83" departLane="best" from="415418914#0" to="93057739#0"/>
    <trip id="motorcycle72" type="motorcycle_motorcycle" depart="257.41" departLane="best" from="485053287#12" to="45781497#0"/>
    <trip id="motorcycle73" type="motorcycle_motorcycle" depart="260.98" departLane="best" from="741168371#0" to="-207904727#14"/>
    <trip id="motorcycle74" type="motorcycle_motorcycle" depart="264.56" departLane="best" from="-176437608#18" to="-51548270#7"/>
    <trip id="motorcycle75" type="motorcycle_motorcycle" depart="268.13" departLane="best" from="-51984186#1" to="-91009081"/>
    <trip id="motorcycle76" type="motorcycle_motorcycle" depart="271.71" departLane="best" from="-91999878#7" to="-86127805#1"/>
    <trip id="motorcycle77" type="motorcycle_motorcycle" depart="275.28" departLane="best" from="-29231523#4" to="-51818689#18"/>
    <trip id="motorcycle78" type="motorcycle_motorcycle" depart="278.86" departLane="best" from="-26175435#0" to="45783768#0"/>
    <trip id="motorcycle79" type="motorcycle_motorcycle" depart="282.43" departLane="best" from="45786301#0" to="86849761#0"/>
    <trip id="motorcycle80" type="motorcycle_motorcycle" depart="286.01" departLane="best" from="207904727#0" to="559505747#0"/>
    <trip id="motorcycle81" type="motorcycle_motorcycle" depart="289.58" departLane="best" from="253143836#0" to="-433769297#7"/>
    <trip id="motorcycle82" type="motorcycle_motorcycle" depart="293.16" departLane="best" from="95949167" to="23328568#0"/>
    <trip id="motorcycle83" type="motorcycle_motorcycle" depart="296.73" departLane="best" departSpeed="max" from="146588339#0" to="-72107992#2"/>
    <trip id="motorcycle84" type="motorcycle_motorcycle" depart="300.31" departLane="best" departSpeed="max" from="-51826550#6" to="93057745#2"/>
    <trip id="motorcycle85" type="motorcycle_motorcycle" depart="303.88" departLane="best" from="-415418914#3" to="-91009081"/>
    <trip id="motorcycle86" type="motorcycle_motorcycle" depart="307.46" departLane="best" from="-74476994#7" to="51826550#0"/>
    <trip id="motorcycle87" type="motorcycle_motorcycle" depart="311.03" departLane="best" from="45781497#9" to="134024021"/>
    <trip id="motorcycle88" type="motorcycle_motorcycle" depart="314.61" departLane="best" from="478638719#0" to="-478638719#6"/>
    <trip id="motorcycle89" type="motorcycle_motorcycle" depart="318.18" departLane="best" from="-197773683#3" to="146587943#5"/>
    <trip id="motorcycle90" type="motorcycle_motorcycle" depart="321.76" departLane="best" departSpeed="max" from="-48161586#3" to="91999878#2"/>
    <trip id="motorcycle91" type="motorcycle_motorcycle" depart="325.33" departLane="best" from="778410663" to="-309631702#1"/>
    <trip id="motorcycle92" type="motorcycle_motorcycle" depart="328.91" departLane="best" from="27207208#1" to="27571057#0"/>
    <trip id="motorcycle93" type="motorcycle_motorcycle" depart="332.48" departLane="best" from="-124186701#0" to="34922485#0"/>
    <trip id="motorcycle94" type="motorcycle_motorcycle" depart="336.06" departLane="best" from="51189676#0" to="485053283"/>
    <trip id="motorcycle95" type="motorcycle_motorcycle" depart="339.63" departLane="best" from="51142637#0" to="-91375465#17"/>
    <trip id="motorcycle96" type="motorcycle_motorcycle" depart="343.21" departLane="best" from="74476994#0" to="-485053287#12"/>
    <trip id="motorcycle97" type="motorcycle_motorcycle" depart="346.78" departLane="best" from="91375465#18" to="193336887"/>
    <trip id="motorcycle98" type="motorcycle_motorcycle" depart="350.36" departLane="best" from="42243993#0" to="86849761#0"/>
    <trip id="motorcycle99" type="motorcycle_motorcycle" depart="353.93" departLane="best" from="42243993#0" to="146588338#0"/>
    <trip id="motorcycle100" type="motorcycle_motorcycle" depart="357.51" departLane="best" from="51270413#0" to="-51548270#7"/>
    <trip id="motorcycle101" type="motorcycle_motorcycle" depart="361.09" departLane="best" from="485053285#0" to="51271000#0"/>
    <trip id="motorcycle102" type="motorcycle_motorcycle" depart="364.66" departLane="best" from="-485053287#23" to="-48135948#3"/>
    <trip id="motorcycle103" type="motorcycle_motorcycle" depart="368.24" departLane="best" from="85470048#0" to="85470048#0"/>
    <trip id="motorcycle104" type="motorcycle_motorcycle" depart="371.81" departLane="best" from="45786301#10" to="72107997#0"/>
    <trip id="motorcycle105" type="motorcycle_motorcycle" depart="375.39" departLane="best" from="415418923#3" to="93057741#0"/>
    <trip id="motorcycle106" type="motorcycle_motorcycle" depart="378.96" departLane="best" from="26175439" to="-48162105"/>
    <trip id="motorcycle107" type="motorcycle_motorcycle" depart="382.54" departLane="best" from="-310175396" to="51479723#0"/>
    <trip id="motorcycle108" type="motorcycle_motorcycle" depart="386.11" departLane="best" from="72107997#0" to="91375465#0"/>
    <trip id="motorcycle109" type="motorcycle_motorcycle" depart="389.69" departLane="best" departSpeed="max" from="-48161586#3" to="-86127805#1"/>
    <trip id="motorcycle110" type="motorcycle_motorcycle" depart="393.26" departLane="best" from="45786301#1" to="193336887"/>
    <trip id="motorcycle111" type="motorcycle_motorcycle" depart="396.84" departLane="best" from="51479709" to="51479707"/>
    <trip id="motorcycle112" type="motorcycle_motorcycle" depart="400.41" departLane="best" from="-27207208#0" to="310175396"/>
    <trip id="motorcycle113" type="motorcycle_motorcycle" depart="403.99" departLane="best" from="23328567#0" to="485053286#0"/>
    <trip id="motorcycle114" type="motorcycle_motorcycle" depart="407.56" departLane="best" departSpeed="max" from="-49743607#4" to="146587943#10"/>
    <trip id="motorcycle115" type="motorcycle_motorcycle" depart="411.14" departLane="best" from="-27475288" to="23328567#2"/>
    <trip id="motorcycle116" type="motorcycle_motorcycle" depart="414.71" departLane="best" from="559505746#0" to="-207904727#14"/>
    <trip id="motorcycle117" type="motorcycle_motorcycle" depart="418.29" departLane="best" from="-34922485#18" to="51272618#0"/>
    <trip id="motorcycle118" type="motorcycle_motorcycle" depart="421.86" departLane="best" departSpeed="max" from="-45783768#6" to="-48135007"/>
    <trip id="motorcycle119" type="motorcycle_motorcycle" depart="425.44" departLane="best" from="-51984186#1" to="56660178#0"/>
    <trip id="motorcycle120" type="motorcycle_motorcycle" depart="429.01" departLane="best" from="48135948#4" to="51826550#0"/>
    <trip id="motorcycle121" type="motorcycle_motorcycle" depart="432.59" departLane="best" departSpeed="max" from="-51748691#1" to="-146588039#9"/>
    <trip id="motorcycle122" type="motorcycle_motorcycle" depart="436.16" departLane="best" from="134024021" to="45781497#9"/>
    <trip id="motorcycle123" type="motorcycle_motorcycle" depart="439.74" departLane="best" from="478638718#12" to="-478638718#13"/>
    <trip id="motorcycle124" type="motorcycle_motorcycle" depart="443.31" departLane="best" from="-27207208#4" to="310175396"/>
    <trip id="motorcycle125" type="motorcycle_motorcycle" depart="446.89" departLane="best" from="-51818689#18" to="-29231523#12"/>
    <trip id="motorcycle126" type="motorcycle_motorcycle" depart="450.46" departLane="best" from="-207904727#14" to="77642916#0"/>
    <trip id="motorcycle127" type="motorcycle_motorcycle" depart="454.04" departLane="best" from="27478484#2" to="27478484#2"/>
    <trip id="motorcycle128" type="motorcycle_motorcycle" depart="457.61" departLane="best" from="485053287#4" to="-415418927"/>
    <trip id="motorcycle129" type="motorcycle_motorcycle" depart="461.19" departLane="best" departSpeed="max" from="48135948#0" to="485053287#12"/>
    <trip id="motorcycle130" type="motorcycle_motorcycle" depart="464.76" departLane="best" from="146587942#8" to="146587942#0"/>
    <trip id="motorcycle131" type="motorcycle_motorcycle" depart="468.34" departLane="best" from="29231523#5" to="478638718#0"/>
    <trip id="motorcycle132" type="motorcycle_motorcycle" depart="471.91" departLane="best" from="415418923#3" to="415418914#0"/>
    <trip id="motorcycle133" type="motorcycle_motorcycle" depart="475.49" departLane="best" from="253143836#0" to="-253143836#18"/>
    <trip id="motorcycle134" type="motorcycle_motorcycle" depart="479.06" departLane="best" from="27475283" to="-55353714#4"/>
    <trip id="motorcycle135" type="motorcycle_motorcycle" depart="482.64" departLane="best" departSpeed="max" from="-459849643#1" to="92409486#0"/>
    <trip id="motorcycle136" type="motorcycle_motorcycle" depart="486.21" departLane="best" from="-91999878#1" to="521697218#0"/>
    <trip id="motorcycle137" type="motorcycle_motorcycle" depart="489.79" departLane="best" from="55353721" to="146587942#5"/>
    <trip id="motorcycle138" type="motorcycle_motorcycle" depart="493.36" departLane="best" from="91999878#2" to="-415418918#4"/>
    <trip id="motorcycle139" type="motorcycle_motorcycle" depart="496.94" departLane="best" from="146587943#10" to="27475283"/>
    <trip id="motorcycle140" type="motorcycle_motorcycle" depart="500.51" departLane="best" from="93057739#1" to="92409495#0"/>
    <trip id="motorcycle141" type="motorcycle_motorcycle" depart="504.09" departLane="best" from="809043969#0" to="26175435#1"/>
    <trip id="motorcycle142" type="motorcycle_motorcycle" depart="507.66" departLane="best" from="-27475288" to="51270435#0"/>
    <trip id="motorcycle143" type="motorcycle_motorcycle" depart="511.24" departLane="best" from="741168371#0" to="-559505745#2"/>
    <trip id="motorcycle144" type="motorcycle_motorcycle" depart="514.81" departLane="best" from="91999878#7" to="-197773683#3"/>
    <trip id="motorcycle145" type="motorcycle_motorcycle" depart="518.39" departLane="best" from="478638719#0" to="-51818689#10"/>
    <trip id="motorcycle146" type="motorcycle_motorcycle" depart="521.96" departLane="best" from="478638721" to="51818689#11"/>
    <trip id="motorcycle147" type="motorcycle_motorcycle" depart="525.54" departLane="best" from="-27475288" to="23328567#2"/>
    <trip id="motorcycle148" type="motorcycle_motorcycle" depart="529.11" departLane="best" departSpeed="max" from="75978514#0" to="75978514#0"/>
    <trip id="motorcycle149" type="motorcycle_motorcycle" depart="532.69" departLane="best" departSpeed="max" from="-51748691#1" to="146587943#2"/>
    <trip id="motorcycle150" type="motorcycle_motorcycle" depart="536.26" departLane="best" from="42243993#0" to="45786301#0"/>
    <trip id="motorcycle151" type="motorcycle_motorcycle" depart="539.84" departLane="best" from="415418923#0" to="55360071#0"/>
    <trip id="motorcycle152" type="motorcycle_motorcycle" depart="543.42" departLane="best" from="45781461#0" to="48161586#0"/>
    <trip id="motorcycle153" type="motorcycle_motorcycle" depart="546.99" departLane="best" from="51479705#0" to="51270448#0"/>
    <trip id="motorcycle154" type="motorcycle_motorcycle" depart="550.57" departLane="best" from="85470048#0" to="85470044#0"/>
    <trip id="motorcycle155" type="motorcycle_motorcycle" depart="554.14" departLane="best" from="34922488#0" to="485053283"/>
    <trip id="motorcycle156" type="motorcycle_motorcycle" depart="557.72" departLane="best" from="48135007" to="-48135949#5"/>
    <trip id="motorcycle157" type="motorcycle_motorcycle" depart="561.29" departLane="best" from="146587943#10" to="48162105"/>
    <trip id="motorcycle158" type="motorcycle_motorcycle" depart="564.87" departLane="best" from="29231523#5" to="478638719#0"/>
    <trip id="motorcycle159" type="motorcycle_motorcycle" depart="568.44" departLane="best" from="-27475283" to="27475283"/>
    <trip id="motorcycle160" type="motorcycle_motorcycle" depart="572.02" departLane="best" from="-831144375#5" to="-415418918#5"/>
    <trip id="motorcycle161" type="motorcycle_motorcycle" depart="575.59" departLane="best" departSpeed="max" from="48135948#0" to="48135949#0"/>
    <trip id="motorcycle162" type="motorcycle_motorcycle" depart="579.17" departLane="best" from="-415418927" to="-485053287#3"/>
    <trip id="motorcycle163" type="motorcycle_motorcycle" depart="582.74" departLane="best" from="521699318" to="521699319"/>
    <trip id="motorcycle164" type="motorcycle_motorcycle" depart="586.32" departLane="best" from="-91999878#6" to="23328568#0"/>
    <trip id="motorcycle165" type="motorcycle_motorcycle" depart="589.89" departLane="best" from="197773683#0" to="485053287#12"/>
    <trip id="motorcycle166" type="motorcycle_motorcycle" depart="593.47" departLane="best" from="197773382#0" to="485053287#12"/>
    <trip id="motorcycle167" type="motorcycle_motorcycle" depart="597.04" departLane="best" from="303644452#2" to="51270415#0"/>
    <trip id="motorcycle168" type="motorcycle_motorcycle" depart="600.62" departLane="best" from="23328567#0" to="-23328567#1"/>
    <trip id="motorcycle169" type="motorcycle_motorcycle" depart="604.19" departLane="best" from="93057739#0" to="459849643#0"/>
    <trip id="motorcycle170" type="motorcycle_motorcycle" depart="607.77" departLane="best" from="478638719#0" to="86296553#2"/>
    <trip id="motorcycle171" type="motorcycle_motorcycle" depart="611.34" departLane="best" from="146587943#2" to="34922486#0"/>
    <trip id="motorcycle172" type="motorcycle_motorcycle" depart="614.92" departLane="best" from="49743610" to="485053287#4"/>
    <trip id="motorcycle173" type="motorcycle_motorcycle" depart="618.49" departLane="best" from="193336887" to="303644452#0"/>
    <trip id="motorcycle174" type="motorcycle_motorcycle" depart="622.07" departLane="best" from="91009081" to="48161586#0"/>
    <trip id="motorcycle175" type="motorcycle_motorcycle" depart="625.64" departLane="best" from="34922488#0" to="193336887"/>
    <trip id="motorcycle176" type="motorcycle_motorcycle" depart="629.22" departLane="best" from="27475283" to="485053287#0"/>
    <trip id="motorcycle177" type="motorcycle_motorcycle" depart="632.79" departLane="best" from="86296553#0" to="-86127790#10"/>
    <trip id="motorcycle178" type="motorcycle_motorcycle" depart="636.37" departLane="best" from="521699319" to="521699319"/>
    <trip id="motorcycle179" type="motorcycle_motorcycle" depart="639.94" departLane="best" departSpeed="max" from="-51984177" to="-26175435#8"/>
    <trip id="motorcycle180" type="motorcycle_motorcycle" depart="643.52" departLane="best" from="146588039#0" to="91009081"/>
    <trip id="motorcycle181" type="motorcycle_motorcycle" depart="647.09" departLane="best" departSpeed="max" from="55353714#0" to="-48135007"/>
    <trip id="motorcycle182" type="motorcycle_motorcycle" depart="650.67" departLane="best" from="-485053287#3" to="-51271000#9"/>
    <trip id="motorcycle183" type="motorcycle_motorcycle" depart="654.24" departLane="best" from="485053287#13" to="26175435#1"/>
    <trip id="motorcycle184" type="motorcycle_motorcycle" depart="657.82" departLane="best" from="778410663" to="-124186701#0"/>
    <trip id="motorcycle185" type="motorcycle_motorcycle" depart="661.39" departLane="best" departSpeed="max" from="-34922486#8" to="-55353714#4"/>
    <trip id="motorcycle186" type="motorcycle_motorcycle" depart="664.97" departLane="best" departSpeed="max" from="51548270#0" to="-146588339#4"/>
    <trip id="motorcycle187" type="motorcycle_motorcycle" depart="668.54" departLane="best" from="478638718#12" to="-91375465#32"/>
    <trip id="motorcycle188" type="motorcycle_motorcycle" depart="672.12" departLane="best" departSpeed="max" from="-45783768#6" to="51826550#0"/>
    <trip id="motorcycle189" type="motorcycle_motorcycle" depart="675.69" departLane="best" from="485053285#0" to="91999878#2"/>
    <trip id="motorcycle190" type="motorcycle_motorcycle" depart="679.27" departLane="best" from="134024021" to="-415418918#4"/>
    <trip id="motorcycle191" type="motorcycle_motorcycle" depart="682.84" departLane="best" departSpeed="max" from="-49743607#4" to="146587942#11"/>
    <trip id="motorcycle192" type="motorcycle_motorcycle" depart="686.42" departLane="best" from="-29231523#4" to="478638718#0"/>
    <trip id="motorcycle193" type="motorcycle_motorcycle" depart="689.99" departLane="best" from="146587943#10" to="-55353714#4"/>
    <trip id="motorcycle194" type="motorcycle_motorcycle" depart="693.57" departLane="best" departSpeed="max" from="55353714#0" to="-831125580"/>
    <trip id="motorcycle195" type="motorcycle_motorcycle" depart="697.14" departLane="best" from="-51271000#9" to="521706070#0"/>
    <trip id="motorcycle196" type="motorcycle_motorcycle" depart="700.72" departLane="best" from="-478638718#11" to="-51270413#7"/>
    <trip id="motorcycle197" type="motorcycle_motorcycle" depart="704.29" departLane="best" from="-86296553#5" to="-91375465#32"/>
    <trip id="motorcycle198" type="motorcycle_motorcycle" depart="707.87" departLane="best" from="26175439" to="197773391#0"/>
    <trip id="motorcycle199" type="motorcycle_motorcycle" depart="711.44" departLane="best" departSpeed="max" from="936697397#0" to="936697397#0"/>
    <trip id="motorcycle200" type="motorcycle_motorcycle" depart="715.02" departLane="best" from="-310175395#2" to="27207208#0"/>
    <trip id="motorcycle201" type="motorcycle_motorcycle" depart="718.59" departLane="best" from="45781497#5" to="51748691#0"/>
    <trip id="motorcycle202" type="motorcycle_motorcycle" depart="722.17" departLane="best" from="92409486#0" to="485053286#0"/>
    <trip id="motorcycle203" type="motorcycle_motorcycle" depart="725.75" departLane="best" from="-95949158" to="134024021"/>
    <trip id="motorcycle204" type="motorcycle_motorcycle" depart="729.32" departLane="best" from="51738618" to="49743607#0"/>
    <trip id="motorcycle205" type="motorcycle_motorcycle" depart="732.90" departLane="best" from="-51984186#1" to="-91999878#6"/>
    <trip id="motorcycle206" type="motorcycle_motorcycle" depart="736.47" departLane="best" from="45781497#5" to="-26175435#8"/>
    <trip id="motorcycle207" type="motorcycle_motorcycle" depart="740.05" departLane="best" from="-485053287#17" to="74476994#0"/>
    <trip id="motorcycle208" type="motorcycle_motorcycle" depart="743.62" departLane="best" from="-27207208#4" to="521699318"/>
    <trip id="motorcycle209" type="motorcycle_motorcycle" depart="747.20" departLane="best" from="478638718#0" to="-146607495#3"/>