<?xml version="1.0" encoding="UTF-8"?>

<!-- generated on 2023-07-11 10:53:49.227722 by osmWebWizard.py v1_15_0+0002-e6790248698
<configuration>
    <end value="6000"/>
    <fringe-factor value="2"/>
    <fringe-start-attributes value="departSpeed=&quot;max&quot;"/>
    <insertion-density value="6.0"/>
    <max-distance value="8000.0"/>
    <net-file value="C:\Users\User\Documents\Sumo\tools\2023-07-11-10-53-40\osm.net.xml.gz"/>
    <remove-loops value="True"/>
    <route-file value="C:\Users\User\Documents\Sumo\tools\2023-07-11-10-53-40\osm.bicycle.rou.xml"/>
    <trip-attributes value="departLane=&quot;best&quot;"/>
    <output-trip-file value="C:\Users\User\Documents\Sumo\tools\2023-07-11-10-53-40\osm.bicycle.trips.xml"/>
    <prefix value="bike"/>
    <validate value="True"/>
    <vclass value="bicycle"/>
    <vehicle-class value="bicycle"/>
</configuration>
-->

<!-- generated on 2023-07-11 10:53:48 by Eclipse SUMO duarouter Version 1.15.0
<configuration xmlns:xsi="http://www.w3.org/2001/XMLSchema-instance" xsi:noNamespaceSchemaLocation="http://sumo.dlr.de/xsd/duarouterConfiguration.xsd">

    <input>
        <net-file value="C:\Users\User\Documents\Sumo\tools\2023-07-11-10-53-40\osm.net.xml.gz"/>
        <route-files value="C:\Users\User\Documents\Sumo\tools\2023-07-11-10-53-40\osm.bicycle.trips.xml"/>
    </input>

    <output>
        <output-file value="C:\Users\User\Documents\Sumo\tools\2023-07-11-10-53-40\osm.bicycle.trips.xml.tmp"/>
        <alternatives-output value="NUL"/>
        <write-trips value="true"/>
    </output>

    <processing>
        <remove-loops value="true"/>
    </processing>

    <time>
        <begin value="0"/>
        <end value="6000"/>
    </time>

    <report>
        <no-warnings value="true"/>
        <ignore-errors value="true"/>
        <no-step-log value="true"/>
    </report>

</configuration>
-->

<routes xmlns:xsi="http://www.w3.org/2001/XMLSchema-instance" xsi:noNamespaceSchemaLocation="http://sumo.dlr.de/xsd/routes_file.xsd">
    <vType id="bike_bicycle" vClass="bicycle"/>
    <trip id="bike0" type="bike_bicycle" depart="0.00" departLane="best" from="26175439" to="-146607495#3"/>
    <trip id="bike1" type="bike_bicycle" depart="3.22" departLane="best" from="-51270415#7" to="-51270415#7"/>
    <trip id="bike2" type="bike_bicycle" depart="6.44" departLane="best" from="45786301#1" to="45781497#5"/>
    <trip id="bike4" type="bike_bicycle" depart="12.87" departLane="best" from="-85470044#2" to="-158634332#4"/>
    <trip id="bike5" type="bike_bicycle" depart="16.09" departLane="best" departSpeed="max" from="-48161586#3" to="-23328567#1"/>
    <trip id="bike6" type="bike_bicycle" depart="19.31" departLane="best" departSpeed="max" from="-51270413#7" to="-51270413#7"/>
    <trip id="bike7" type="bike_bicycle" depart="22.53" departLane="best" from="-27475288" to="-26175435#0"/>
    <trip id="bike8" type="bike_bicycle" depart="25.75" departLane="best" from="48162105" to="29231523#5"/>
    <trip id="bike9" type="bike_bicycle" depart="28.97" departLane="best" from="485053288#0" to="-1059305957#6"/>
    <trip id="bike10" type="bike_bicycle" depart="32.19" departLane="best" from="-485053287#11" to="45786301#10"/>
    <trip id="bike11" type="bike_bicycle" depart="35.40" departLane="best" from="-521706070#4" to="-48135948#9"/>
    <trip id="bike12" type="bike_bicycle" depart="38.62" departLane="best" departSpeed="max" from="86127790#0" to="85470044#1"/>
    <trip id="bike13" type="bike_bicycle" depart="41.84" departLane="best" from="26175439" to="309631702#0"/>
    <trip id="bike14" type="bike_bicycle" depart="45.06" departLane="best" from="51702404#0" to="34922485#0"/>
    <trip id="bike15" type="bike_bicycle" depart="48.28" departLane="best" from="485053288#0" to="48135948#4"/>
    <trip id="bike16" type="bike_bicycle" depart="51.50" departLane="best" from="146587943#10" to="91375465#0"/>
    <trip id="bike17" type="bike_bicycle" depart="54.72" departLane="best" from="-74476994#7" to="26175437#0"/>
    <trip id="bike18" type="bike_bicycle" depart="57.93" departLane="best" from="-51270415#7" to="-415418914#3"/>
    <trip id="bike20" type="bike_bicycle" depart="64.37" departLane="best" from="45326122#3" to="-197773683#3"/>
    <trip id="bike21" type="bike_bicycle" depart="67.59" departLane="best" from="485053286#0" to="741168371#0"/>
    <trip id="bike22" type="bike_bicycle" depart="70.81" departLane="best" from="-23328574#5" to="51818689#11"/>
    <trip id="bike23" type="bike_bicycle" depart="74.03" departLane="best" from="-27475288" to="-27475288"/>
    <trip id="bike24" type="bike_bicycle" depart="77.25" departLane="best" from="26175437#0" to="-86296553#5"/>
    <trip id="bike25" type="bike_bicycle" depart="80.46" departLane="best" from="-72107992#2" to="-51272618#7"/>
    <trip id="bike27" type="bike_bicycle" depart="86.90" departLane="best" from="-27475288" to="34922486#0"/>
    <trip id="bike28" type="bike_bicycle" depart="90.12" departLane="best" departSpeed="max" from="48135948#4" to="48135948#4"/>
    <trip id="bike29" type="bike_bicycle" depart="93.34" departLane="best" departSpeed="max" from="-91375465#32" to="-91375465#32"/>
    <trip id="bike30" type="bike_bicycle" depart="96.56" departLane="best" from="-91999878#1" to="44037281#0"/>
    <trip id="bike31" type="bike_bicycle" depart="99.78" departLane="best" from="146588338#0" to="45783768#0"/>
    <trip id="bike32" type="bike_bicycle" depart="102.99" departLane="best" departSpeed="max" from="51548270#0" to="49743607#0"/>
    <trip id="bike33" type="bike_bicycle" depart="106.21" departLane="best" from="485053286#0" to="-175960788#3"/>
    <trip id="bike34" type="bike_bicycle" depart="109.43" departLane="best" departSpeed="max" from="-559505746#15" to="-559505746#15"/>
    <trip id="bike35" type="bike_bicycle" depart="112.65" departLane="best" from="-51984186#1" to="-831125580"/>
    <trip id="bike36" type="bike_bicycle" depart="115.87" departLane="best" from="-29231523#4" to="-95949158"/>
    <trip id="bike37" type="bike_bicycle" depart="119.09" departLane="best" from="74476999#0" to="146587943#2"/>
    <trip id="bike39" type="bike_bicycle" depart="125.52" departLane="best" departSpeed="max" from="146588339#0" to="26175432#0"/>
    <trip id="bike40" type="bike_bicycle" depart="128.74" departLane="best" from="197773391#0" to="-74476999#20"/>
    <trip id="bike41" type="bike_bicycle" depart="131.96" departLane="best" from="95949167" to="-51548270#7"/>
    <trip id="bike42" type="bike_bicycle" depart="135.18" departLane="best" from="-831144375#1" to="-95949158"/>
    <trip id="bike43" type="bike_bicycle" depart="138.40" departLane="best" from="-26175435#8" to="-197773683#3"/>
    <trip id="bike44" type="bike_bicycle" depart="141.62" departLane="best" from="-309631702#1" to="-415418923#2"/>
    <trip id="bike46" type="bike_bicycle" depart="148.05" departLane="best" from="-207904727#14" to="-91375465#32"/>
    <trip id="bike47" type="bike_bicycle" depart="151.27" departLane="best" from="91999878#7" to="23363570#0"/>
    <trip id="bike48" type="bike_bicycle" depart="154.49" departLane="best" from="86296553#6" to="55360071#0"/>
    <trip id="bike49" type="bike_bicycle" depart="157.71" departLane="best" from="-127703117#6" to="478638721"/>
    <trip id="bike50" type="bike_bicycle" depart="160.93" departLane="best" from="415418914#0" to="253143836#0"/>
    <trip id="bike52" type="bike_bicycle" depart="167.37" departLane="best" from="-309631702#1" to="146587942#13"/>
    <trip id="bike53" type="bike_bicycle" depart="170.58" departLane="best" from="86296553#6" to="-86127790#10"/>
    <trip id="bike54" type="bike_bicycle" depart="173.80" departLane="best" from="-51984186#1" to="559505745#3"/>
    <trip id="bike56" type="bike_bicycle" depart="180.24" departLane="best" from="74476999#0" to="559505747#0"/>
    <trip id="bike57" type="bike_bicycle" depart="183.46" departLane="best" departSpeed="max" from="-51748691#1" to="44037281#0"/>
    <trip id="bike58" type="bike_bicycle" depart="186.68" departLane="best" from="23328569#0" to="-48135948#3"/>
    <trip id="bike59" type="bike_bicycle" depart="189.90" departLane="best" from="48135007" to="26175432#0"/>
    <trip id="bike60" type="bike_bicycle" depart="193.11" departLane="best" from="48162105" to="23363570#0"/>
    <trip id="bike61" type="bike_bicycle" depart="196.33" departLane="best" from="23328570#14" to="-831144375#5"/>
    <trip id="bike63" type="bike_bicycle" depart="202.77" departLane="best" from="-559505745#9" to="51826550#0"/>
    <trip id="bike64" type="bike_bicycle" depart="205.99" departLane="best" from="-51818689#18" to="-23328568#1"/>
    <trip id="bike65" type="bike_bicycle" depart="209.21" departLane="best" from="559505745#3" to="85470044#3"/>
    <trip id="bike66" type="bike_bicycle" depart="212.43" departLane="best" from="-26175435#0" to="-197773382#8"/>
    <trip id="bike67" type="bike_bicycle" depart="215.64" departLane="best" from="-23328568#1" to="485053287#12"/>
    <trip id="bike68" type="bike_bicycle" depart="218.86" departLane="best" departSpeed="max" from="48135948#0" to="-433769297#7"/>
    <trip id="bike69" type="bike_bicycle" depart="222.08" departLane="best" from="-91999878#1" to="26175437#0"/>
    <trip id="bike71" type="bike_bicycle" depart="228.52" departLane="best" from="-85470044#2" to="-51272633#4"/>
    <trip id="bike72" type="bike_bicycle" depart="231.74" departLane="best" from="146587943#11" to="48135948#4"/>
    <trip id="bike73" type="bike_bicycle" depart="234.96" departLane="best" from="-478638719#6" to="-831125580"/>
    <trip id="bike74" type="bike_bicycle" depart="238.17" departLane="best" from="-91999878#7" to="45326122#9"/>
    <trip id="bike76" type="bike_bicycle" depart="244.61" departLane="best" departSpeed="max" from="-34922486#8" to="-34922486#8"/>
    <trip id="bike77" type="bike_bicycle" depart="247.83" departLane="best" from="-521706064#1" to="29231523#5"/>
    <trip id="bike78" type="bike_bicycle" depart="251.05" departLane="best" from="485053286#0" to="-51548270#7"/>
    <trip id="bike79" type="bike_bicycle" depart="254.27" departLane="best" from="-23328568#1" to="-415418918#4"/>
    <trip id="bike80" type="bike_bicycle" depart="257.49" departLane="best" from="485053286#0" to="77642916#0"/>
    <trip id="bike81" type="bike_bicycle" depart="260.70" departLane="best" from="-521697218#8" to="-253143836#18"/>
    <trip id="bike82" type="bike_bicycle" depart="263.92" departLane="best" from="485053287#13" to="45781461#9"/>
    <trip id="bike83" type="bike_bicycle" depart="267.14" departLane="best" departSpeed="max" from="-48161586#3" to="-478638718#11"/>
    <trip id="bike84" type="bike_bicycle" depart="270.36" departLane="best" from="-831144375#5" to="27475288"/>
    <trip id="bike85" type="bike_bicycle" depart="273.58" departLane="best" from="-91375465#32" to="49743610"/>
    <trip id="bike86" type="bike_bicycle" depart="276.80" departLane="best" from="485053288#0" to="-485067571#1"/>
    <trip id="bike87" type="bike_bicycle" depart="280.02" departLane="best" from="27475283" to="146587942#11"/>
    <trip id="bike88" type="bike_bicycle" depart="283.23" departLane="best" from="-85470044#2" to="146588039#0"/>
    <trip id="bike89" type="bike_bicycle" depart="286.45" departLane="best" from="45781497#9" to="45781497#0"/>
    <trip id="bike90" type="bike_bicycle" depart="289.67" departLane="best" from="91375465#18" to="-309631702#1"/>
    <trip id="bike91" type="bike_bicycle" depart="292.89" departLane="best" from="831144375#2" to="85470048#0"/>
    <trip id="bike92" type="bike_bicycle" depart="296.11" departLane="best" from="521706070#0" to="-521706070#4"/>
    <trip id="bike93" type="bike_bicycle" depart="299.33" departLane="best" from="478638718#3" to="146587942#8"/>
    <trip id="bike94" type="bike_bicycle" depart="302.55" departLane="best" from="-85470044#2" to="-85470044#2"/>
    <trip id="bike95" type="bike_bicycle" depart="305.76" departLane="best" from="485053283" to="-845110746"/>
    <trip id="bike96" type="bike_bicycle" depart="308.98" departLane="best" from="86127790#3" to="55360071#0"/>
    <trip id="bike97" type="bike_bicycle" depart="312.20" departLane="best" from="146588039#0" to="-207904727#14"/>
    <trip id="bike98" type="bike_bicycle" depart="315.42" departLane="best" from="-831144375#1" to="51826550#0"/>
    <trip id="bike99" type="bike_bicycle" depart="318.64" departLane="best" from="86296553#2" to="848463704#0"/>
    <trip id="bike100" type="bike_bicycle" depart="321.86" departLane="best" from="51702404#0" to="485053285#0"/>
    <trip id="bike101" type="bike_bicycle" depart="325.08" departLane="best" departSpeed="max" from="-51272633#4" to="-51272633#4"/>
    <trip id="bike102" type="bike_bicycle" depart="328.29" departLane="best" from="831144375#2" to="-23328569#2"/>
    <trip id="bike103" type="bike_bicycle" depart="331.51" departLane="best" from="-74476994#7" to="91999878#2"/>
    <trip id="bike106" type="bike_bicycle" depart="341.17" departLane="best" departSpeed="max" from="86127790#0" to="936697397#0"/>
    <trip id="bike107" type="bike_bicycle" depart="344.39" departLane="best" from="-146588153#12" to="-478638719#6"/>
    <trip id="bike108" type="bike_bicycle" depart="347.61" departLane="best" from="-415418927" to="-74476999#20"/>
    <trip id="bike110" type="bike_bicycle" depart="354.04" departLane="best" from="146587943#11" to="-485053285#2"/>
    <trip id="bike111" type="bike_bicycle" depart="357.26" departLane="best" from="-197773391#5" to="29231523#0"/>
    <trip id="bike112" type="bike_bicycle" depart="360.48" departLane="best" from="-124186701#0" to="521697218#0"/>
    <trip id="bike113" type="bike_bicycle" depart="363.70" departLane="best" from="-42243993#5" to="86296553#2"/>
    <trip id="bike114" type="bike_bicycle" depart="366.92" departLane="best" from="-23328574#5" to="485053287#0"/>
    <trip id="bike115" type="bike_bicycle" depart="370.14" departLane="best" from="207904727#0" to="45781497#0"/>
    <trip id="bike116" type="bike_bicycle" depart="373.35" departLane="best" from="485053287#12" to="-415418927"/>
    <trip id="bike117" type="bike_bicycle" depart="376.57" departLane="best" from="-559505781#5" to="-521706070#4"/>
    <trip id="bike118" type="bike_bicycle" depart="379.79" departLane="best" from="207904727#0" to="-415418914#3"/>
    <trip id="bike119" type="bike_bicycle" depart="383.01" departLane="best" from="85470044#0" to="29231523#0"/>
    <trip id="bike120" type="bike_bicycle" depart="386.23" departLane="best" from="146587942#2" to="848463704#4"/>
    <trip id="bike121" type="bike_bicycle" depart="389.45" departLane="best" from="48135007" to="-478638718#11"/>
    <trip id="bike122" type="bike_bicycle" depart="392.67" departLane="best" from="485053287#13" to="-95949158"/>
    <trip id="bike123" type="bike_bicycle" depart="395.89" departLane="best" from="34922485#0" to="-75978514#5"/>
    <trip id="bike124" type="bike_bicycle" depart="399.10" departLane="best" departSpeed="max" from="485053286#0" to="485053286#0"/>
    <trip id="bike126" type="bike_bicycle" depart="405.54" departLane="best" from="-831144375#1" to="936697397#0"/>
    <trip id="bike130" type="bike_bicycle" depart="418.42" departLane="best" from="-72107992#2" to="-48135949#5"/>
    <trip id="bike131" type="bike_bicycle" depart="421.63" departLane="best" from="51271000#0" to="459849643#0"/>
    <trip id="bike132" type="bike_bicycle" depart="424.85" departLane="best" from="23328570#0" to="91999878#7"/>
    <trip id="bike133" type="bike_bicycle" depart="428.07" departLane="best" from="28018709#0" to="124186701#0"/>
    <trip id="bike134" type="bike_bicycle" depart="431.29" departLane="best" from="51142644" to="-75978514#5"/>
    <trip id="bike135" type="bike_bicycle" depart="434.51" departLane="best" from="51142637#0" to="85470044#1"/>
    <trip id="bike136" type="bike_bicycle" depart="437.73" departLane="best" departSpeed="max" from="-40864059#5" to="415418918#5"/>
    <trip id="bike137" type="bike_bicycle" depart="440.95" departLane="best" from="51270413#5" to="34922486#0"/>
    <trip id="bike138" type="bike_bicycle" depart="444.16" departLane="best" from="45781461#4" to="51270415#0"/>
    <trip id="bike139" type="bike_bicycle" depart="447.38" departLane="best" from="26175437#0" to="-559505745#9"/>
    <trip id="bike140" type="bike_bicycle" depart="450.60" departLane="best" departSpeed="max" from="77642916#0" to="77642916#0"/>
    <trip id="bike141" type="bike_bicycle" depart="453.82" departLane="best" departSpeed="max" from="51548270#0" to="-29231523#4"/>
    <trip id="bike142" type="bike_bicycle" depart="457.04" departLane="best" from="-85470044#2" to="-85470044#2"/>
    <trip id="bike143" type="bike_bicycle" depart="460.26" departLane="best" from="-1059305957#6" to="485053287#4"/>
    <trip id="bike144" type="bike_bicycle" depart="463.48" departLane="best" from="26175437#0" to="-559505745#2"/>
    <trip id="bike145" type="bike_bicycle" depart="466.69" departLane="best" from="45786301#10" to="26175437#0"/>
    <trip id="bike146" type="bike_bicycle" depart="469.91" departLane="best" departSpeed="max" from="-85470044#3" to="-124186701#0"/>
    <trip id="bike148" type="bike_bicycle" depart="476.35" departLane="best" from="-72107992#2" to="26175435#0"/>
    <trip id="bike149" type="bike_bicycle" depart="479.57" departLane="best" from="51272618#0" to="-175960788#3"/>
    <trip id="bike150" type="bike_bicycle" depart="482.79" departLane="best" from="415418918#5" to="-433769297#7"/>
    <trip id="bike151" type="bike_bicycle" depart="486.01" departLane="best" from="-51818689#18" to="74476999#0"/>
    <trip id="bike152" type="bike_bicycle" depart="489.22" departLane="best" from="485053287#12" to="55360071#0"/>
    <trip id="bike153" type="bike_bicycle" depart="492.44" departLane="best" departSpeed="max" from="72107990#0" to="-51272618#7"/>
    <trip id="bike154" type="bike_bicycle" depart="495.66" departLane="best" from="-485067571#1" to="-39542408#22"/>
    <trip id="bike156" type="bike_bicycle" depart="502.10" departLane="best" from="845110746" to="-415418914#3"/>
    <trip id="bike157" type="bike_bicycle" depart="505.32" departLane="best" from="-415418927" to="848463704#4"/>
    <trip id="bike158" type="bike_bicycle" depart="508.54" departLane="best" departSpeed="max" from="55353714#0" to="91375465#18"/>
    <trip id="bike160" type="bike_bicycle" depart="514.97" departLane="best" departSpeed="max" from="48161586#0" to="48161586#0"/>
    <trip id="bike161" type="bike_bicycle" depart="518.19" departLane="best" from="-51984186#1" to="848463704#4"/>
    <trip id="bike162" type="bike_bicycle" depart="521.41" departLane="best" from="-485053287#23" to="559505745#3"/>
    <trip id="bike163" type="bike_bicycle" depart="524.63" departLane="best" from="49743610" to="559505746#0"/>
    <trip id="bike164" type="bike_bicycle" depart="527.85" departLane="best" from="485053286#0" to="-415418914#3"/>
    <trip id="bike165" type="bike_bicycle" depart="531.07" departLane="best" from="55353721" to="55353721"/>
    <trip id="bike166" type="bike_bicycle" depart="534.28" departLane="best" from="-48162105" to="197773389"/>
    <trip id="bike168" type="bike_bicycle" depart="540.72" departLane="best" from="-485053287#12" to="51738618"/>
    <trip id="bike169" type="bike_bicycle" depart="543.94" departLane="best" departSpeed="max" from="-49743610" to="-49743610"/>
    <trip id="bike170" type="bike_bicycle" depart="547.16" departLane="best" departSpeed="max" from="-51984177" to="559505745#3"/>
    <trip id="bike171" type="bike_bicycle" depart="550.38" departLane="best" from="86296553#2" to="86296553#2"/>
    <trip id="bike172" type="bike_bicycle" depart="553.60" departLane="best" from="26175440#0" to="1101953228#0"/>
    <trip id="bike173" type="bike_bicycle" depart="556.81" departLane="best" from="-91375465#17" to="253143836#0"/>
    <trip id="bike174" type="bike_bicycle" depart="560.03" departLane="best" from="-848463704#3" to="-415418918#5"/>
    <trip id="bike175" type="bike_bicycle" depart="563.25" departLane="best" from="86296553#6" to="485053287#13"/>
    <trip id="bike176" type="bike_bicycle" depart="566.47" departLane="best" from="86127790#3" to="-559505745#9"/>
    <trip id="bike177" type="bike_bicycle" depart="569.69" departLane="best" from="-29231523#4" to="146587942#13"/>
    <trip id="bike178" type="bike_bicycle" depart="572.91" departLane="best" from="45781497#5" to="-831125580"/>
    <trip id="bike179" type="bike_bicycle" depart="576.13" departLane="best" from="-23328568#1" to="-95949158"/>
    <trip id="bike181" type="bike_bicycle" depart="582.56" departLane="best" departSpeed="max" from="-49743607#4" to="-478638718#2"/>
    <trip id="bike182" type="bike_bicycle" depart="585.78" departLane="best" from="23328570#14" to="848463704#0"/>
    <trip id="bike183" type="bike_bicycle" depart="589.00" departLane="best" from="146587943#10" to="478638719#0"/>
    <trip id="bike184" type="bike_bicycle" depart="592.22" departLane="best" from="45786301#10" to="45781461#9"/>
    <trip id="bike185" type="bike_bicycle" depart="595.44" departLane="best" departSpeed="max" from="-253143836#18" to="-253143836#18"/>
    <trip id="bike186" type="bike_bicycle" depart="598.66" departLane="best" from="303644452#0" to="848463704#0"/>
    <trip id="bike187" type="bike_bicycle" depart="601.87" departLane="best" departSpeed="max" from="-51826550#6" to="51984177"/>
    <trip id="bike188" type="bike_bicycle" depart="605.09" departLane="best" from="-91999878#7" to="-75978514#5"/>
    <trip id="bike189" type="bike_bicycle" depart="608.31" departLane="best" departSpeed="max" from="-51826550#6" to="124186701#1"/>
    <trip id="bike190" type="bike_bicycle" depart="611.53" departLane="best" from="831144375#2" to="-74476999#20"/>
    <trip id="bike192" type="bike_bicycle" depart="617.97" departLane="best" from="-848463704#3" to="45781497#5"/>
    <trip id="bike193" type="bike_bicycle" depart="621.19" departLane="best" from="72107997#0" to="39542408#0"/>
    <trip id="bike194" type="bike_bicycle" depart="624.40" departLane="best" departSpeed="max" from="-51748691#1" to="-26175435#8"/>
    <trip id="bike195" type="bike_bicycle" depart="627.62" departLane="best" from="23328570#14" to="741168371#0"/>
    <trip id="bike197" type="bike_bicycle" depart="634.06" departLane="best" from="-29231523#4" to="146588039#0"/>
    <trip id="bike198" type="bike_bicycle" depart="637.28" departLane="best" from="86127790#3" to="-51272633#4"/>
    <trip id="bike199" type="bike_bicycle" depart="640.50" departLane="best" from="-91375465#32" to="-75978514#5"/>
    <trip id="bike200" type="bike_bicycle" depart="643.72" departLane="best" from="485053287#12" to="-485053286#2"/>
    <trip id="bike202" type="bike_bicycle" depart="650.15" departLane="best" from="193336887" to="-485053286#2"/>
    <trip id="bike203" type="bike_bicycle" depart="653.37" departLane="best" from="34922485#0" to="34922485#0"/>
    <trip id="bike204" type="bike_bicycle" depart="656.59" departLane="best" from="478638718#0" to="-146607495#3"/>
    <trip id="bike205" type="bike_bicycle" depart="659.81" departLane="best" from="-485053287#3" to="-146607495#3"/>
    <trip id="bike206" type="bike_bicycle" depart="663.03" departLane="best" from="51702404#0" to="-26175435#0"/>
    <trip id="bike207" type="bike_bicycle" depart="666.25" departLane="best" departSpeed="max" from="415418923#3" to="415418923#3"/>
    <trip id="bike208" type="bike_bicycle" depart="669.46" departLane="best" from="478638718#12" to="45786301#10"/>
    <trip id="bike209" type="bike_bicycle" depart="672.68" departLane="best" from="23328567#2" to="-521706064#1"/>
    <trip id="bike210" type="bike_bicycle" depart="675.90" departLane="best" from="-29231523#4" to="-1059305957#6"/>
    <trip id="bike211" type="bike_bicycle" depart="679.12" departLane="best" from="478638718#3" to="485053287#4"/>
    <trip id="bike213" type="bike_bicycle" depart="685.56" departLane="best" departSpeed="max" from="86296553#0" to="86296553#0"/>
    <trip id="bike214" type="bike_bicycle" depart="688.78" departLane="best" from="146587942#11" to="-207904727#14"/>
    <trip id="bike215" type="bike_bicycle" depart="691.99" departLane="best" from="485053283" to="51984177"/>
    <trip id="bike216" type="bike_bicycle" depart="695.21" departLane="best" from="-86296553#5" to="51270415#0"/>
    <trip id="bike217" type="bike_bicycle" depart="698.43" departLane="best" from="303644452#2" to="91999878#7"/>
    <trip id="bike218" type="bike_bicycle" depart="701.65" departLane="best" from="-207904727#14" to="85470048#0"/>
    <trip id="bike219" type="bike_bicycle" depart="704.87" departLane="best" from="559505781#0" to="34922488#0"/>
    <trip id="bike220" type="bike_bicycle" depart="708.09" departLane="best" from="-91999878#7" to="207904727#0"/>
    <trip id="bike221" type="bike_bicycle" depart="711.31" departLane="best" from="51271000#0" to="26175435#1"/>
    <trip id="bike222" type="bike_bicycle" depart="714.52" departLane="best" departSpeed="max" from="72107990#0" to="48162105"/>
    <trip id="bike223" type="bike_bicycle" depart="717.74" departLane="best" from="-91999878#1" to="-55353721"/>
    <trip id="bike224" type="bike_bicycle" depart="720.96" departLane="best" from="-485053287#3" to="44037281#0"/>
    <trip id="bike225" type="bike_bicycle" depart="724.18" departLane="best" departSpeed="max" from="48135948#0" to="-23328570#13"/>
    <trip id="bike227" type="bike_bicycle" depart="730.62" departLane="best" from="-23328570#13" to="-72107992#2"/>
    <trip id="bike228" type="bike_bicycle" depart="733.84" departLane="best" from="51270413#5" to="-831144375#1"/>
    <trip id="bike229" type="bike_bicycle" depart="737.05" departLane="best" from="146587943#11" to="-478638718#2"/>
    <trip id="bike230" type="bike_bicycle" depart="740.27" departLane="best" from="-485053287#11" to="45786301#1"/>
    <trip id="bike231" type="bike_bicycle" depart="743.49" departLane="best" from="45326122#9" to="-23328570#13"/>
    <trip id="bike232" type="bike_bicycle" depart="746.71" departLane="best" from="-848463704#3" to="26175432#0"/>
    <trip id="bike233" type="bike_bicycle" depart="749.93" departLane="best" departSpeed="max" from="-51271000#9" to="-51271000#9"/>
    <trip id="bike234" type="bike_bicycle" depart="753.15" departLane="best" from="-85470044#0" to="-77642916#9"/>
    <trip id="bike235" type="bike_bicycle" depart="756.37" departLane="best" from="197773391#0" to="45786301#1"/>
    <trip id="bike236" type="bike_bicycle" depart="759.58" departLane="best" from="-51818689#18" to="485053287#19"/>
    <trip id="bike237" type="bike_bicycle" depart="762.80" departLane="best" from="-74476999#20" to="1059305957#0"/>
    <trip id="bike238" type="bike_bicycle" depart="766.02" departLane="best" from="-559505745#9" to="-485053286#2"/>
    <trip id="bike239" type="bike_bicycle" depart="769.24" departLane="best" from="51738618" to="-86127790#10"/>
    <trip id="bike240" type="bike_bicycle" depart="772.46" departLane="best" from="-85470044#0" to="485053285#0"/>
    <trip id="bike241" type="bike_bicycle" depart="775.68" departLane="best" from="146587943#5" to="34922485#0"/>
    <trip id="bike242" type="bike_bicycle" depart="778.90" departLane="best" from="48162105" to="-51548270#7"/>
    <trip id="bike243" type="bike_bicycle" depart="782.11" departLane="best" departSpeed="max" from="-86127780#16" to="-158634332#4"/>
    <trip id="bike244" type="bike_bicycle" depart="785.33" departLane="best" from="-521706064#1" to="45781497#5"/>
    <trip id="bike245" type="bike_bicycle" depart="788.55" departLane="best" from="845110746" to="485053285#0"/>
    <trip id="bike246" type="bike_bicycle" depart="791.77" departLane="best" from="91009081" to="-433769297#7"/>
    <trip id="bike247" type="bike_bicycle" depart="794.99" departLane="best" from="-253143836#18" to="-146607495#3"/>
    <trip id="bike248" type="bike_bicycle" depart="798.21" departLane="best" from="809043969#0" to="27475286#0"/>
    <trip id="bike249" type="bike_bicycle" depart="801.43" departLane="best" departSpeed="max" from="45326122#0" to="45326122#0"/>
    <trip id="bike250" type="bike_bicycle" depart="804.64" departLane="best" departSpeed="max" from="-40864059#5" to="146587943#5"/>
    <trip id="bike251" type="bike_bicycle" depart="807.86" departLane="best" from="-176437608#18" to="-91375465#32"/>
    <trip id="bike252" type="bike_bicycle" depart="811.08" departLane="best" from="48135949#0" to="-845110746"/>
    <trip id="bike253" type="bike_bicycle" depart="814.30" departLane="best" from="48135007" to="-91375465#32"/>
    <trip id="bike254" type="bike_bicycle" depart="817.52" departLane="best" from="478638718#3" to="51826550#0"/>
    <trip id="bike255" type="bike_bicycle" depart="820.74" departLane="best" departSpeed="max" from="-49743607#4" to="26175439"/>
    <trip id="bike257" type="bike_bicycle" depart="827.17" departLane="best" from="95949167" to="-86127790#2"/>
    <trip id="bike258" type="bike_bicycle" depart="830.39" departLane="best" from="-27475288" to="49743607#0"/>
    <trip id="bike259" type="bike_bicycle" depart="833.61" departLane="best" from="28018709#0" to="-485053286#2"/>
    <trip id="bike260" type="bike_bicycle" depart="836.83" departLane="best" from="-85470048#1" to="51270413#5"/>
    <trip id="bike261" type="bike_bicycle" depart="840.05" departLane="best" departSpeed="max" from="-48135948#3" to="-48135948#3"/>
    <trip id="bike262" type="bike_bicycle" depart="843.27" departLane="best" departSpeed="max" from="-384953637#2" to="45781461#9"/>
    <trip id="bike263" type="bike_bicycle" depart="846.49" departLane="best" departSpeed="max" from="146588339#0" to="-51548270#7"/>